@<TRIPOS>MOLECULE
CHEMBL30540
   69    73     0     0     0
SMALL
USER_CHARGES

@<TRIPOS>ATOM
      1 C1         -2.0121    1.4392   -6.0977 C.3       1 <0>         0.0232
      2 O1         -1.9859    0.0107   -6.1265 O.3       1 <0>        -0.2976
      3 C2         -0.8672   -0.5960   -5.6475 C.ar      1 <0>         0.1262
      4 C3          0.1597    0.1630   -5.1645 C.ar      1 <0>        -0.1566
      5 C4          1.3149   -0.4600   -4.6697 C.ar      1 <0>        -0.1002
      6 C5          1.4125   -1.8726   -4.6727 C.ar      1 <0>         0.1670
      7 C6          0.3439   -2.6307   -5.1748 C.ar      1 <0>        -0.1783
      8 C7         -0.7813   -1.9951   -5.6489 C.ar      1 <0>         0.1598
      9 O2         -1.8172   -2.7314   -6.1286 O.3       1 <0>        -0.2923
     10 C8         -1.6696   -4.1526   -6.1034 C.3       1 <0>         0.0549
     11 C9         -2.9274   -4.8063   -6.6790 C.3       1 <0>        -0.1160
     12 C10        -2.7693   -6.3279   -6.6520 C.3       1 <0>         0.0587
     13 N1         -3.9770   -6.9556   -7.2047 N.3       1 <0>        -0.5363
     14 C11        -5.1394   -6.7158   -6.3372 C.3       1 <0>         0.0125
     15 C12        -6.3844   -7.3343   -6.9789 C.3       1 <0>         0.0624
     16 O3         -6.1557   -8.7278   -7.2049 O.3       1 <0>        -0.3853
     17 C13        -5.0312   -8.9976   -8.0464 C.3       1 <0>         0.0626
     18 C14        -3.7726   -8.3961   -7.4156 C.3       1 <0>         0.0174
     19 N2          2.5140   -2.4746   -4.2003 N.ar      1 <0>        -0.4632
     20 C15         3.5263   -1.7948   -3.7255 C.ar      1 <0>         0.1794
     21 C16         3.5155   -0.3913   -3.6835 C.ar      1 <0>        -0.0913
     22 C17         2.3935    0.3014   -4.1631 C.ar      1 <0>         0.2677
     23 N3          2.3438    1.6811   -4.1402 N.pl3     1 <0>        -0.7069
     24 C18         2.7364    2.4130   -5.2639 C.ar      1 <0>         0.2021
     25 C19         3.0482    1.7569   -6.4481 C.ar      1 <0>        -0.1756
     26 C20         3.4359    2.4833   -7.5567 C.ar      1 <0>        -0.0661
     27 C21         3.5144    3.8624   -7.4889 C.ar      1 <0>        -0.1221
     28 C22         3.2048    4.5187   -6.3117 C.ar      1 <0>        -0.0671
     29 C23         2.8104    3.7988   -5.2011 C.ar      1 <0>        -0.1743
     30 C24         3.9389    4.6517   -8.7004 C.3       1 <0>        -0.0395
     31 C25         2.7240    5.0122   -9.5159 C.ar      1 <0>        -0.0297
     32 C26         2.2635    4.1680  -10.5148 C.ar      1 <0>        -0.1695
     33 C27         1.1461    4.5320  -11.2421 C.ar      1 <0>         0.1008
     34 N4          0.5208    5.6665  -10.9954 N.ar      1 <0>        -0.4891
     35 C28         0.9304    6.4935  -10.0535 C.ar      1 <0>         0.1003
     36 C29         2.0367    6.1934   -9.2815 C.ar      1 <0>        -0.1698
     37 C30         4.6379    0.3255   -3.1572 C.1       1 <0>         0.2559
     38 N5          5.5283    0.8941   -2.7397 N.1       1 <0>        -0.3964
     39 H1         -1.9098    1.7838   -5.0687 H         1 <0>         0.0578
     40 H2         -1.1884    1.8298   -6.6953 H         1 <0>         0.0589
     41 H3         -2.9580    1.7936   -6.5072 H         1 <0>         0.1070
     42 H4          0.0829    1.2402   -5.1636 H         1 <0>         0.1480
     43 H5          0.4018   -3.7091   -5.1845 H         1 <0>         0.1560
     44 H6         -0.8049   -4.4387   -6.7021 H         1 <0>         0.0710
     45 H7         -1.5256   -4.4846   -5.0752 H         1 <0>         0.0684
     46 H8         -3.7921   -4.5202   -6.0803 H         1 <0>         0.0766
     47 H9         -3.0714   -4.4742   -7.7072 H         1 <0>         0.0865
     48 H10        -1.9046   -6.6140   -7.2507 H         1 <0>         0.0817
     49 H11        -2.6253   -6.6600   -5.6238 H         1 <0>         0.0404
     50 H12        -4.9669   -7.1730   -5.3629 H         1 <0>         0.0446
     51 H13        -5.2876   -5.6429   -6.2155 H         1 <0>         0.0904
     52 H14        -7.2377   -7.2089   -6.3124 H         1 <0>         0.0993
     53 H15        -6.5879   -6.8400   -7.9288 H         1 <0>         0.0612
     54 H16        -4.9059  -10.0752   -8.1520 H         1 <0>         0.0997
     55 H17        -5.1954   -8.5517   -9.0274 H         1 <0>         0.0612
     56 H18        -2.9230   -8.5496   -8.0810 H         1 <0>         0.0883
     57 H19        -3.5782   -8.8801   -6.4585 H         1 <0>         0.0448
     58 H20         4.3910   -2.3263   -3.3565 H         1 <0>         0.1733
     59 H21         2.0364    2.1422   -3.3442 H         1 <0>         0.4172
     60 H22         2.9878    0.6799   -6.5015 H         1 <0>         0.1200
     61 H23         3.6784    1.9739   -8.4776 H         1 <0>         0.1235
     62 H24         3.2675    5.5957   -6.2620 H         1 <0>         0.1248
     63 H25         2.5641    4.3123   -4.2834 H         1 <0>         0.1247
     64 H26         4.4457    5.5624   -8.3815 H         1 <0>         0.0860
     65 H27         4.6177    4.0510   -9.3059 H         1 <0>         0.0858
     66 H28         2.7718    3.2379  -10.7220 H         1 <0>         0.1329
     67 H29         0.7811    3.8799  -12.0218 H         1 <0>         0.1549
     68 H30         0.3926    7.4140   -9.8806 H         1 <0>         0.1548
     69 H31         2.3644    6.8724   -8.5082 H         1 <0>         0.1329
@<TRIPOS>BOND
     1    1    2 1
     2    1   39 1
     3    1   40 1
     4    1   41 1
     5    2    3 1
     6    3    8 ar
     7    3    4 ar
     8    4    5 ar
     9    4   42 1
    10    5   22 ar
    11    5    6 ar
    12    6    7 ar
    13    6   19 ar
    14    7    8 ar
    15    7   43 1
    16    8    9 1
    17    9   10 1
    18   10   11 1
    19   10   44 1
    20   10   45 1
    21   11   12 1
    22   11   46 1
    23   11   47 1
    24   12   13 1
    25   12   48 1
    26   12   49 1
    27   13   18 1
    28   13   14 1
    29   14   15 1
    30   14   50 1
    31   14   51 1
    32   15   16 1
    33   15   52 1
    34   15   53 1
    35   16   17 1
    36   17   18 1
    37   17   54 1
    38   17   55 1
    39   18   56 1
    40   18   57 1
    41   19   20 ar
    42   20   21 ar
    43   20   58 1
    44   21   22 ar
    45   21   37 1
    46   22   23 1
    47   23   24 1
    48   23   59 1
    49   24   29 ar
    50   24   25 ar
    51   25   26 ar
    52   25   60 1
    53   26   27 ar
    54   26   61 1
    55   27   28 ar
    56   27   30 1
    57   28   29 ar
    58   28   62 1
    59   29   63 1
    60   30   31 1
    61   30   64 1
    62   30   65 1
    63   31   36 ar
    64   31   32 ar
    65   32   33 ar
    66   32   66 1
    67   33   34 ar
    68   33   67 1
    69   34   35 ar
    70   35   36 ar
    71   35   68 1
    72   36   69 1
    73   37   38 3
@<TRIPOS>MOLECULE
CHEMBL30540__1
   70    74     0     0     0
SMALL
USER_CHARGES

@<TRIPOS>ATOM
      1 C1         -4.3089    1.3482    4.7909 C.3       1 <0>         0.0220
      2 O1         -4.3110   -0.0808    4.7876 O.3       1 <0>        -0.3019
      3 C2         -4.4401   -0.6952    3.5814 C.ar      1 <0>         0.1229
      4 C3         -4.5541    0.0572    2.4479 C.ar      1 <0>        -0.1479
      5 C4         -4.6874   -0.5737    1.2023 C.ar      1 <0>        -0.0968
      6 C5         -4.7033   -1.9874    1.1242 C.ar      1 <0>         0.1615
      7 C6         -4.5850   -2.7387    2.3034 C.ar      1 <0>        -0.1704
      8 C7         -4.4492   -2.0952    3.5126 C.ar      1 <0>         0.1494
      9 O2         -4.3284   -2.8248    4.6522 O.3       1 <0>        -0.2939
     10 C8         -4.3446   -4.2472    4.5167 C.3       1 <0>         0.0565
     11 C9         -4.1981   -4.8927    5.8961 C.3       1 <0>        -0.1506
     12 C10        -4.2154   -6.4157    5.7509 C.3       1 <0>        -0.0060
     13 N1         -4.0747   -7.0354    7.0754 N.4       1 <0>        -0.3843
     14 C11        -2.7521   -6.7138    7.6289 C.3       1 <0>        -0.0502
     15 C12        -2.6081   -7.3604    9.0088 C.3       1 <0>         0.0361
     16 O3         -2.7984   -8.7730    8.8898 O.3       1 <0>        -0.3563
     17 C13        -4.0645   -9.1365    8.3324 C.3       1 <0>         0.0354
     18 C14        -4.2112   -8.4932    6.9512 C.3       1 <0>        -0.0433
     19 N2         -4.8296   -2.5969   -0.0638 N.ar      1 <0>        -0.4660
     20 C15        -4.9414   -1.9237   -1.1803 C.ar      1 <0>         0.1847
     21 C16        -4.9349   -0.5196   -1.1968 C.ar      1 <0>        -0.0813
     22 C17        -4.8069    0.1808    0.0122 C.ar      1 <0>         0.2705
     23 N3         -4.7969    1.5612    0.0390 N.pl3     1 <0>        -0.7089
     24 C18        -5.9843    2.2643    0.2582 C.ar      1 <0>         0.1980
     25 C19        -7.1490    1.5799    0.5825 C.ar      1 <0>        -0.1769
     26 C20        -8.3208    2.2779    0.7985 C.ar      1 <0>        -0.0670
     27 C21        -8.3359    3.6566    0.6917 C.ar      1 <0>        -0.1178
     28 C22        -7.1784    4.3411    0.3691 C.ar      1 <0>        -0.0660
     29 C23        -6.0017    3.6498    0.1579 C.ar      1 <0>        -0.1714
     30 C24        -9.6169    4.4149    0.9271 C.3       1 <0>        -0.0414
     31 C25        -9.7249    4.7779    2.3858 C.ar      1 <0>        -0.0300
     32 C26       -10.3384    3.9212    3.2869 C.ar      1 <0>        -0.1705
     33 C27       -10.4189    4.2879    4.6169 C.ar      1 <0>         0.1000
     34 N4         -9.9213    5.4367    5.0312 N.ar      1 <0>        -0.4886
     35 C28        -9.3312    6.2759    4.2026 C.ar      1 <0>         0.1015
     36 C29        -9.2081    5.9741    2.8596 C.ar      1 <0>        -0.1689
     37 C30        -5.0581    0.1900   -2.4345 C.1       1 <0>         0.2480
     38 N5         -5.1559    0.7529   -3.4164 N.1       1 <0>        -0.3836
     39 H1         -4.1996    1.7090    5.8136 H         1 <0>         0.1089
     40 H2         -3.4777    1.7116    4.1866 H         1 <0>         0.0602
     41 H3         -5.2477    1.7138    4.3750 H         1 <0>         0.0612
     42 H4         -4.5421    1.1353    2.5102 H         1 <0>         0.1510
     43 H5         -4.5953   -3.8179    2.2618 H         1 <0>         0.1534
     44 H6         -5.2879   -4.5588    4.0681 H         1 <0>         0.0790
     45 H7         -3.5180   -4.5609    3.8791 H         1 <0>         0.0786
     46 H8         -3.2547   -4.5812    6.3446 H         1 <0>         0.1005
     47 H9         -5.0246   -4.5790    6.5336 H         1 <0>         0.1015
     48 H10        -5.1587   -6.7272    5.3024 H         1 <0>         0.1384
     49 H11        -3.3888   -6.7294    5.1134 H         1 <0>         0.1362
     50 H12        -1.9772   -7.0970    6.9651 H         1 <0>         0.1408
     51 H13        -2.6499   -5.6325    7.7215 H         1 <0>         0.1447
     52 H14        -1.6120   -7.1592    9.4029 H         1 <0>         0.1427
     53 H15        -3.3576   -6.9477    9.6841 H         1 <0>         0.0820
     54 H16        -4.1223  -10.2208    8.2370 H         1 <0>         0.1430
     55 H17        -4.8638   -8.7847    8.9846 H         1 <0>         0.0819
     56 H18        -5.1921   -8.7329    6.5408 H         1 <0>         0.1442
     57 H19        -3.4357   -8.8758    6.2877 H         1 <0>         0.1403
     58 H20        -5.0408   -2.4610   -2.1118 H         1 <0>         0.1765
     59 H21        -3.9656    2.0429   -0.0943 H         1 <0>         0.4186
     60 H22        -7.1380    0.5031    0.6653 H         1 <0>         0.1178
     61 H23        -9.2266    1.7465    1.0506 H         1 <0>         0.1237
     62 H24        -7.1938    5.4178    0.2862 H         1 <0>         0.1269
     63 H25        -5.0970    4.1854   -0.0893 H         1 <0>         0.1261
     64 H26        -9.6169    5.3238    0.3255 H         1 <0>         0.0877
     65 H27       -10.4652    3.7918    0.6440 H         1 <0>         0.0866
     66 H28       -10.7485    2.9793    2.9535 H         1 <0>         0.1321
     67 H29       -10.8952    3.6261    5.3251 H         1 <0>         0.1542
     68 H30        -8.9359    7.2079    4.5787 H         1 <0>         0.1559
     69 H31        -8.7193    6.6633    2.1868 H         1 <0>         0.1339
     70 H32        -4.7921   -6.6815    7.6904 H         1 <0>         0.4247
@<TRIPOS>BOND
     1    1    2 1
     2    1   39 1
     3    1   40 1
     4    1   41 1
     5    2    3 1
     6    3    8 ar
     7    3    4 ar
     8    4    5 ar
     9    4   42 1
    10    5   22 ar
    11    5    6 ar
    12    6    7 ar
    13    6   19 ar
    14    7    8 ar
    15    7   43 1
    16    8    9 1
    17    9   10 1
    18   10   11 1
    19   10   44 1
    20   10   45 1
    21   11   12 1
    22   11   46 1
    23   11   47 1
    24   12   13 1
    25   12   48 1
    26   12   49 1
    27   13   18 1
    28   13   14 1
    29   13   70 1
    30   14   15 1
    31   14   50 1
    32   14   51 1
    33   15   16 1
    34   15   52 1
    35   15   53 1
    36   16   17 1
    37   17   18 1
    38   17   54 1
    39   17   55 1
    40   18   56 1
    41   18   57 1
    42   19   20 ar
    43   20   21 ar
    44   20   58 1
    45   21   22 ar
    46   21   37 1
    47   22   23 1
    48   23   24 1
    49   23   59 1
    50   24   29 ar
    51   24   25 ar
    52   25   26 ar
    53   25   60 1
    54   26   27 ar
    55   26   61 1
    56   27   28 ar
    57   27   30 1
    58   28   29 ar
    59   28   62 1
    60   29   63 1
    61   30   31 1
    62   30   64 1
    63   30   65 1
    64   31   36 ar
    65   31   32 ar
    66   32   33 ar
    67   32   66 1
    68   33   34 ar
    69   33   67 1
    70   34   35 ar
    71   35   36 ar
    72   35   68 1
    73   36   69 1
    74   37   38 3
@<TRIPOS>MOLECULE
CHEMBL435734
   51    53     0     0     0
SMALL
USER_CHARGES

@<TRIPOS>ATOM
      1 C1         -0.0173    1.4248    0.0099 C.3       1 <0>         0.0256
      2 O1          0.0021   -0.0041    0.0020 O.3       1 <0>        -0.3065
      3 C2         -1.2011   -0.6379    0.0101 C.ar      1 <0>         0.0993
      4 C3         -2.3743    0.0994    0.0195 C.ar      1 <0>        -0.1693
      5 C4         -3.5965   -0.5465    0.0272 C.ar      1 <0>        -0.1091
      6 C5         -3.6519   -1.9279    0.0261 C.ar      1 <0>        -0.0852
      7 C6         -2.4852   -2.6694    0.0172 C.ar      1 <0>        -0.1716
      8 C7         -1.2569   -2.0283    0.0032 C.ar      1 <0>         0.1039
      9 O2         -0.1083   -2.7563   -0.0116 O.3       1 <0>        -0.3053
     10 C8         -0.2420   -4.1790   -0.0180 C.3       1 <0>         0.0249
     11 C9         -4.9869   -2.6268    0.0350 C.3       1 <0>        -0.0686
     12 C10        -5.4493   -2.8618   -1.4044 C.3       1 <0>        -0.1153
     13 H1         -5.4543   -1.9272   -1.9653 H         1 <0>         0.1076
     14 C11        -4.5584   -3.9177   -2.1029 C.3       1 <0>         0.0562
     15 O3         -5.4911   -4.6929   -2.8869 O.3       1 <0>        -0.3523
     16 C12        -6.5887   -4.8681   -2.1117 C.2       1 <0>         0.4846
     17 O4         -7.2344   -5.8816   -1.9860 O.2       1 <0>        -0.4242
     18 C13        -6.8462   -3.5269   -1.4316 C.3       1 <0>        -0.1419
     19 H2         -7.2197   -3.6752   -0.4184 H         1 <0>         0.1150
     20 C14        -7.8270   -2.6846   -2.2498 C.3       1 <0>        -0.0616
     21 C15        -9.2049   -3.2881   -2.1587 C.ar      1 <0>        -0.0626
     22 C16        -9.6036   -4.2391   -3.0795 C.ar      1 <0>        -0.1242
     23 C17       -10.8666   -4.7957   -3.0002 C.ar      1 <0>        -0.1002
     24 C18       -11.7358   -4.4009   -1.9959 C.ar      1 <0>         0.0757
     25 C19       -11.3343   -3.4440   -1.0689 C.ar      1 <0>         0.1038
     26 C20       -10.0653   -2.8936   -1.1512 C.ar      1 <0>        -0.1873
     27 O5        -12.1839   -3.0533   -0.0814 O.3       1 <0>        -0.3075
     28 C21       -11.7041   -2.0669    0.8346 C.3       1 <0>         0.0248
     29 O6        -12.9787   -4.9471   -1.9168 O.3       1 <0>        -0.4870
     30 H3          1.0053    1.8021    0.0021 H         1 <0>         0.1019
     31 H4         -0.5445    1.7859   -0.8732 H         1 <0>         0.0556
     32 H5         -0.5275    1.7763    0.9067 H         1 <0>         0.0554
     33 H6         -2.3338    1.1787    0.0211 H         1 <0>         0.1364
     34 H7         -4.5102    0.0294    0.0345 H         1 <0>         0.1282
     35 H8         -2.5312   -3.7485    0.0167 H         1 <0>         0.1342
     36 H9         -0.7791   -4.4975    0.8754 H         1 <0>         0.0552
     37 H10        -0.7960   -4.4879   -0.9044 H         1 <0>         0.0552
     38 H11         0.7471   -4.6369   -0.0298 H         1 <0>         0.1026
     39 H12        -4.8923   -3.5844    0.5471 H         1 <0>         0.0776
     40 H13        -5.7178   -2.0075    0.5549 H         1 <0>         0.0868
     41 H14        -3.8257   -3.4334   -2.7486 H         1 <0>         0.1157
     42 H15        -4.0621   -4.5481   -1.3650 H         1 <0>         0.0792
     43 H16        -7.8488   -1.6682   -1.8568 H         1 <0>         0.0933
     44 H17        -7.5073   -2.6645   -3.2917 H         1 <0>         0.0857
     45 H18        -8.9271   -4.5477   -3.8628 H         1 <0>         0.1241
     46 H19       -11.1759   -5.5379   -3.7212 H         1 <0>         0.1371
     47 H20        -9.7499   -2.1535   -0.4307 H         1 <0>         0.1331
     48 H21       -10.8173   -2.4446    1.3436 H         1 <0>         0.0552
     49 H22       -11.4506   -1.1577    0.2895 H         1 <0>         0.0560
     50 H23       -12.4784   -1.8462    1.5693 H         1 <0>         0.1019
     51 H24       -13.0241   -5.7440   -1.3709 H         1 <0>         0.3878
@<TRIPOS>BOND
     1    1    2 1
     2    1   30 1
     3    1   31 1
     4    1   32 1
     5    2    3 1
     6    3    8 ar
     7    3    4 ar
     8    4    5 ar
     9    4   33 1
    10    5    6 ar
    11    5   34 1
    12    6    7 ar
    13    6   11 1
    14    7    8 ar
    15    7   35 1
    16    8    9 1
    17    9   10 1
    18   10   36 1
    19   10   37 1
    20   10   38 1
    21   11   12 1
    22   11   39 1
    23   11   40 1
    24   12   13 1
    25   12   18 1
    26   12   14 1
    27   14   15 1
    28   14   41 1
    29   14   42 1
    30   15   16 1
    31   16   17 2
    32   16   18 1
    33   18   19 1
    34   18   20 1
    35   20   21 1
    36   20   43 1
    37   20   44 1
    38   21   26 ar
    39   21   22 ar
    40   22   23 ar
    41   22   45 1
    42   23   24 ar
    43   23   46 1
    44   24   25 ar
    45   24   29 1
    46   25   26 ar
    47   25   27 1
    48   26   47 1
    49   27   28 1
    50   28   48 1
    51   28   49 1
    52   28   50 1
    53   29   51 1
@<TRIPOS>MOLECULE
CHEMBL485286
   68    73     0     0     0
SMALL
USER_CHARGES

@<TRIPOS>ATOM
      1 C1         -0.0445    1.5022    0.0288 C.3       1 <0>        -0.1193
      2 C2         -0.0172   -0.0045    0.0156 C.ar      1 <0>        -0.0750
      3 C3         -0.0042   -0.6841   -1.1863 C.ar      1 <0>        -0.0981
      4 C4          0.0208   -2.0655   -1.2035 C.ar      1 <0>        -0.1235
      5 C5          0.0328   -2.7790   -0.0107 C.ar      1 <0>         0.1406
      6 C6          0.0199   -2.1042    1.2005 C.ar      1 <0>        -0.0947
      7 C7          0.0008   -0.7116    1.2168 C.ar      1 <0>        -0.0541
      8 C8         -0.0070    0.0170    2.5088 C.ar      1 <0>         0.0377
      9 C9          0.9009    1.0587    2.7258 C.ar      1 <0>        -0.1267
     10 C10         0.9037    1.7361    3.9092 C.ar      1 <0>        -0.0416
     11 C11        -0.0050    1.3899    4.9140 C.ar      1 <0>        -0.2016
     12 C12        -0.9209    0.3445    4.7050 C.ar      1 <0>         0.0939
     13 C13        -0.9198   -0.3350    3.4954 C.ar      1 <0>        -0.1120
     14 O1         -1.6612    0.2355    5.8271 O.3       1 <0>        -0.0783
     15 N1         -1.2336    1.2026    6.7651 N.2       1 <0>        -0.2811
     16 C14        -0.2611    1.9001    6.2635 C.2       1 <0>         0.1242
     17 C15         0.4714    3.0275    6.9445 C.3       1 <0>        -0.0231
     18 C16         1.1224    2.5119    8.2312 C.3       1 <0>        -0.1457
     19 C17         1.7966    3.6776    8.9578 C.3       1 <0>        -0.0037
     20 N2          0.7945    4.6976    9.2894 N.4       1 <0>        -0.5075
     21 C18         0.2172    5.2478    8.0571 C.3       1 <0>        -0.0036
     22 C19        -0.5178    4.1425    7.2959 C.3       1 <0>        -0.1453
     23 N3          0.0572   -4.1772   -0.0322 N.am      1 <0>        -0.6656
     24 C20         0.7400   -4.8538    0.9125 C.2       1 <0>         0.5652
     25 O2          1.2640   -4.2540    1.8303 O.2       1 <0>        -0.5105
     26 C21         0.8516   -6.3287    0.8320 C.ar      1 <0>        -0.0499
     27 C22         0.2601   -7.0379   -0.2206 C.ar      1 <0>        -0.2117
     28 C23         0.3866   -8.4109   -0.2611 C.ar      1 <0>         0.1568
     29 N4          1.0538   -9.0597    0.6740 N.ar      1 <0>        -0.5253
     30 C24         1.6291   -8.4321    1.6869 C.ar      1 <0>         0.4245
     31 C25         1.5539   -7.0475    1.7998 C.ar      1 <0>        -0.1762
     32 N5          2.3207   -9.1636    2.6457 N.pl3     1 <0>        -0.6134
     33 C26         2.5814  -10.6097    2.5967 C.3       1 <0>         0.1188
     34 C27         3.3546  -10.9796    3.8800 C.3       1 <0>        -0.1349
     35 C28         2.9929   -9.8232    4.8492 C.3       1 <0>        -0.1333
     36 C29         2.9195   -8.6167    3.8768 C.3       1 <0>         0.1122
     37 H1          0.9763    1.8842    0.0276 H         1 <0>         0.0742
     38 H2         -0.5688    1.8638   -0.8557 H         1 <0>         0.0719
     39 H3         -0.5609    1.8484    0.9242 H         1 <0>         0.0677
     40 H4         -0.0141   -0.1342   -2.1157 H         1 <0>         0.1348
     41 H5          0.0309   -2.5922   -2.1463 H         1 <0>         0.1328
     42 H6          0.0291   -2.6566    2.1285 H         1 <0>         0.1440
     43 H7          1.6041    1.3279    1.9515 H         1 <0>         0.1426
     44 H8          1.6076    2.5392    4.0704 H         1 <0>         0.1352
     45 H9         -1.6227   -1.1367    3.3230 H         1 <0>         0.1440
     46 H10         1.2395    3.4186    6.2774 H         1 <0>         0.1166
     47 H11         0.3594    2.0741    8.8750 H         1 <0>         0.0989
     48 H12         1.8684    1.7565    7.9843 H         1 <0>         0.1193
     49 H13         2.2613    3.3139    9.8742 H         1 <0>         0.1398
     50 H14         2.5595    4.1144    8.3133 H         1 <0>         0.1353
     51 H15         0.0630    4.2806    9.8453 H         1 <0>         0.4302
     52 H16        -0.4841    6.0433    8.3087 H         1 <0>         0.1397
     53 H17         1.0137    5.6511    7.4318 H         1 <0>         0.1353
     54 H18        -0.9442    4.5526    6.3804 H         1 <0>         0.1193
     55 H19        -1.3148    3.7386    7.9202 H         1 <0>         0.0988
     56 H20        -0.4172   -4.6599   -0.7271 H         1 <0>         0.4156
     57 H21        -0.2886   -6.5165   -0.9909 H         1 <0>         0.1354
     58 H22        -0.0678   -8.9632   -1.0703 H         1 <0>         0.1654
     59 H23         2.0284   -6.5377    2.6252 H         1 <0>         0.1426
     60 H24         1.6385  -11.1554    2.5618 H         1 <0>         0.0684
     61 H25         3.1829  -10.8484    1.7197 H         1 <0>         0.0663
     62 H26         3.0112  -11.9356    4.2751 H         1 <0>         0.0854
     63 H27         4.4278  -11.0025    3.6905 H         1 <0>         0.0779
     64 H28         2.0304  -10.0020    5.3287 H         1 <0>         0.0781
     65 H29         3.7766   -9.6767    5.5924 H         1 <0>         0.0874
     66 H30         3.9178   -8.2293    3.6734 H         1 <0>         0.0695
     67 H31         2.2850   -7.8336    4.2919 H         1 <0>         0.0746
     68 H32         1.2323    5.4393    9.8149 H         1 <0>         0.4347
@<TRIPOS>BOND
     1    1    2 1
     2    1   37 1
     3    1   38 1
     4    1   39 1
     5    2    7 ar
     6    2    3 ar
     7    3    4 ar
     8    3   40 1
     9    4    5 ar
    10    4   41 1
    11    5    6 ar
    12    5   23 1
    13    6    7 ar
    14    6   42 1
    15    7    8 1
    16    8   13 ar
    17    8    9 ar
    18    9   10 ar
    19    9   43 1
    20   10   11 ar
    21   10   44 1
    22   11   16 1
    23   11   12 ar
    24   12   13 ar
    25   12   14 1
    26   13   45 1
    27   14   15 1
    28   15   16 2
    29   16   17 1
    30   17   22 1
    31   17   18 1
    32   17   46 1
    33   18   19 1
    34   18   47 1
    35   18   48 1
    36   19   20 1
    37   19   49 1
    38   19   50 1
    39   20   21 1
    40   20   51 1
    41   20   68 1
    42   21   22 1
    43   21   52 1
    44   21   53 1
    45   22   54 1
    46   22   55 1
    47   23   24 am
    48   23   56 1
    49   24   25 2
    50   24   26 1
    51   26   31 ar
    52   26   27 ar
    53   27   28 ar
    54   27   57 1
    55   28   29 ar
    56   28   58 1
    57   29   30 ar
    58   30   31 ar
    59   30   32 1
    60   31   59 1
    61   32   36 1
    62   32   33 1
    63   33   34 1
    64   33   60 1
    65   33   61 1
    66   34   35 1
    67   34   62 1
    68   34   63 1
    69   35   36 1
    70   35   64 1
    71   35   65 1
    72   36   66 1
    73   36   67 1
@<TRIPOS>MOLECULE
CHEMBL361708
   28    30     0     0     0
SMALL
USER_CHARGES

@<TRIPOS>ATOM
      1 C1         -0.0163    1.3518    0.0095 C.2       1 <0>        -0.1320
      2 C2          1.3148    1.7902   -0.0009 C.2       1 <0>        -0.0473
      3 C3          2.1177    0.6382   -0.0541 C.2       1 <0>        -0.0284
      4 N1          1.2938   -0.4402   -0.0184 N.pl3     1 <0>        -0.4947
      5 H1          1.5772   -1.3679   -0.0093 H         1 <0>         0.4228
      6 C4          0.0021   -0.0041    0.0020 C.2       1 <0>         0.0135
      7 Br1        -1.5265   -1.1172    0.0181 Br        1 <0>         0.0029
      8 C5          3.5766    0.7389   -0.1870 C.2       1 <0>         0.6051
      9 O1          4.1929    0.0169   -0.9490 O.2       1 <0>        -0.5408
     10 N2          4.2121    1.6686    0.5723 N.am      1 <0>        -0.7065
     11 C6          3.5429    2.2863    1.7070 C.3       1 <0>         0.1163
     12 C7          2.6757    3.4872    1.3174 C.3       1 <0>        -0.0871
     13 C8          1.8765    3.1423    0.0746 C.2       1 <0>        -0.1143
     14 C9          1.6898    4.0463   -0.9242 C.2       1 <0>         0.1008
     15 C10         2.1957    5.4237   -0.9853 C.2       1 <0>         0.4669
     16 O2          2.9467    6.0446   -0.0478 O.3       1 <0>        -0.6390
     17 N3          1.7827    5.9409   -2.1226 N.2       1 <0>        -0.6194
     18 C11         1.0592    5.0459   -2.8124 C.2       1 <0>         0.5785
     19 N4          0.9806    3.8605   -2.1141 N.pl3     1 <0>        -0.7302
     20 N5          0.5113    5.2654   -3.9838 N.2       1 <0>        -0.7896
     21 H2         -0.8955    1.9789    0.0252 H         1 <0>         0.1528
     22 H3          5.1227    1.9234    0.3559 H         1 <0>         0.4078
     23 H4          2.9112    1.5403    2.1892 H         1 <0>         0.0663
     24 H5          4.2974    2.6164    2.4210 H         1 <0>         0.0851
     25 H6          1.9946    3.7249    2.1345 H         1 <0>         0.0799
     26 H7          3.3144    4.3465    1.1128 H         1 <0>         0.1130
     27 H8          0.5205    3.0537   -2.3935 H         1 <0>         0.4017
     28 H9          0.0011    4.5649   -4.4195 H         1 <0>         0.3159
@<TRIPOS>BOND
     1    1    6 2
     2    1    2 1
     3    1   21 1
     4    2   13 1
     5    2    3 2
     6    3    4 1
     7    3    8 1
     8    4    5 1
     9    4    6 1
    10    6    7 1
    11    8    9 2
    12    8   10 am
    13   10   11 1
    14   10   22 1
    15   11   12 1
    16   11   23 1
    17   11   24 1
    18   12   13 1
    19   12   25 1
    20   12   26 1
    21   13   14 2
    22   14   19 1
    23   14   15 1
    24   15   16 1
    25   15   17 2
    26   17   18 1
    27   18   19 1
    28   18   20 2
    29   19   27 1
    30   20   28 1
@<TRIPOS>MOLECULE
CHEMBL361708__1
   28    30     0     0     0
SMALL
USER_CHARGES

@<TRIPOS>ATOM
      1 C1         -0.0163    1.3522    0.0095 C.2       1 <0>        -0.1304
      2 C2          1.3145    1.7899   -0.0009 C.2       1 <0>        -0.0459
      3 C3          2.1168    0.6384   -0.0541 C.2       1 <0>        -0.0300
      4 N1          1.2937   -0.4395   -0.0184 N.pl3     1 <0>        -0.4944
      5 H1          1.5775   -1.3670   -0.0089 H         1 <0>         0.4225
      6 C4          0.0021   -0.0041    0.0020 C.2       1 <0>         0.0140
      7 Br1        -1.5262   -1.1176    0.0181 Br        1 <0>         0.0029
      8 C5          3.5767    0.7391   -0.1874 C.2       1 <0>         0.6062
      9 O1          4.1928    0.0172   -0.9493 O.2       1 <0>        -0.5393
     10 N2          4.2125    1.6688    0.5718 N.am      1 <0>        -0.7083
     11 C6          3.5436    2.2865    1.7066 C.3       1 <0>         0.1168
     12 C7          2.6766    3.4877    1.3173 C.3       1 <0>        -0.0808
     13 C8          1.8770    3.1431    0.0747 C.2       1 <0>        -0.1250
     14 C9          1.6904    4.0451   -0.9215 C.2       1 <0>         0.0817
     15 C10         2.1965    5.4312   -0.9893 C.2       1 <0>         0.5130
     16 O2          2.8748    6.0047   -0.1528 O.2       1 <0>        -0.5579
     17 N3          1.7619    5.9328   -2.1536 N.2       1 <0>        -0.7162
     18 C11         1.0563    5.0350   -2.8068 C.2       1 <0>         0.5692
     19 N4          0.9819    3.8661   -2.1131 N.pl3     1 <0>        -0.6705
     20 N5          0.4771    5.2468   -4.0277 N.2       1 <0>        -0.8527
     21 H2         -0.8954    1.9794    0.0253 H         1 <0>         0.1535
     22 H3          5.1230    1.9236    0.3550 H         1 <0>         0.4071
     23 H4          2.9118    1.5406    2.1889 H         1 <0>         0.0681
     24 H5          4.2983    2.6165    2.4205 H         1 <0>         0.0845
     25 H6          1.9957    3.7255    2.1345 H         1 <0>         0.0803
     26 H7          3.3154    4.3469    1.1126 H         1 <0>         0.1016
     27 H8          0.5214    3.0596   -2.3928 H         1 <0>         0.4083
     28 H9          0.5746    6.1055   -4.4684 H         1 <0>         0.3216
@<TRIPOS>BOND
     1    1    6 2
     2    1    2 1
     3    1   21 1
     4    2   13 1
     5    2    3 2
     6    3    4 1
     7    3    8 1
     8    4    5 1
     9    4    6 1
    10    6    7 1
    11    8    9 2
    12    8   10 am
    13   10   11 1
    14   10   22 1
    15   11   12 1
    16   11   23 1
    17   11   24 1
    18   12   13 1
    19   12   25 1
    20   12   26 1
    21   13   14 2
    22   14   19 1
    23   14   15 1
    24   15   16 2
    25   15   17 1
    26   17   18 2
    27   18   19 1
    28   18   20 1
    29   19   27 1
    30   20   28 1
@<TRIPOS>MOLECULE
CHEMBL361708__2
   29    31     0     0     0
SMALL
USER_CHARGES

@<TRIPOS>ATOM
      1 C1         -0.0163    1.3522    0.0095 C.2       1 <0>        -0.1233
      2 C2          1.3145    1.7899   -0.0009 C.2       1 <0>        -0.1048
      3 C3          2.1168    0.6384   -0.0541 C.2       1 <0>        -0.0013
      4 N1          1.2937   -0.4395   -0.0184 N.pl3     1 <0>        -0.4850
      5 H1          1.5775   -1.3670   -0.0089 H         1 <0>         0.4308
      6 C4          0.0021   -0.0041    0.0020 C.2       1 <0>         0.0189
      7 Br1        -1.5262   -1.1176    0.0181 Br        1 <0>         0.0227
      8 C5          3.5767    0.7391   -0.1874 C.2       1 <0>         0.5973
      9 O1          4.1928    0.0172   -0.9493 O.2       1 <0>        -0.5214
     10 N2          4.2125    1.6688    0.5718 N.am      1 <0>        -0.7121
     11 C6          3.5436    2.2865    1.7066 C.3       1 <0>         0.1126
     12 C7          2.6766    3.4877    1.3173 C.3       1 <0>        -0.1046
     13 C8          1.8770    3.1431    0.0747 C.2       1 <0>         0.0171
     14 C9          1.6904    4.0451   -0.9215 C.2       1 <0>        -0.0013
     15 C10         2.1965    5.4312   -0.9893 C.2       1 <0>         0.5402
     16 O2          2.8748    6.0047   -0.1528 O.2       1 <0>        -0.4687
     17 N3          1.7619    5.9328   -2.1536 N.2       1 <0>        -0.6424
     18 C11         1.0563    5.0350   -2.8068 C.2       1 <0>         0.6571
     19 N4          0.9819    3.8661   -2.1131 N.pl3     1 <0>        -0.6656
     20 N5          0.4771    5.2468   -4.0277 N.pl3     1 <0>        -0.8040
     21 H2         -0.8954    1.9794    0.0253 H         1 <0>         0.1589
     22 H3          5.1230    1.9236    0.3550 H         1 <0>         0.4127
     23 H4          2.9118    1.5406    2.1889 H         1 <0>         0.0771
     24 H5          4.2983    2.6165    2.4205 H         1 <0>         0.0983
     25 H6          1.9957    3.7255    2.1345 H         1 <0>         0.1057
     26 H7          3.3154    4.3469    1.1126 H         1 <0>         0.1089
     27 H8          0.5214    3.0596   -2.3928 H         1 <0>         0.4258
     28 H9          0.5746    6.1055   -4.4684 H         1 <0>         0.4334
     29 H10        -0.0311    4.5384   -4.4529 H         1 <0>         0.4171
@<TRIPOS>BOND
     1    1    6 2
     2    1    2 1
     3    1   21 1
     4    2   13 1
     5    2    3 2
     6    3    4 1
     7    3    8 1
     8    4    5 1
     9    4    6 1
    10    6    7 1
    11    8    9 2
    12    8   10 am
    13   10   11 1
    14   10   22 1
    15   11   12 1
    16   11   23 1
    17   11   24 1
    18   12   13 1
    19   12   25 1
    20   12   26 1
    21   13   14 2
    22   14   19 1
    23   14   15 1
    24   15   16 2
    25   15   17 1
    26   17   18 2
    27   18   19 1
    28   18   20 1
    29   19   27 1
    30   20   28 1
    31   20   29 1
@<TRIPOS>MOLECULE
CHEMBL30359
   67    71     0     0     0
SMALL
USER_CHARGES

@<TRIPOS>ATOM
      1 C1         -2.0121    1.4392   -6.0977 C.3       1 <0>         0.0229
      2 O1         -1.9859    0.0107   -6.1265 O.3       1 <0>        -0.2981
      3 C2         -0.8672   -0.5960   -5.6475 C.ar      1 <0>         0.1255
      4 C3          0.1597    0.1630   -5.1645 C.ar      1 <0>        -0.1556
      5 C4          1.3149   -0.4600   -4.6697 C.ar      1 <0>        -0.1005
      6 C5          1.4125   -1.8726   -4.6727 C.ar      1 <0>         0.1668
      7 C6          0.3439   -2.6307   -5.1748 C.ar      1 <0>        -0.1785
      8 C7         -0.7813   -1.9951   -5.6489 C.ar      1 <0>         0.1594
      9 O2         -1.8172   -2.7314   -6.1286 O.3       1 <0>        -0.2925
     10 C8         -1.6696   -4.1526   -6.1034 C.3       1 <0>         0.0549
     11 C9         -2.9274   -4.8063   -6.6790 C.3       1 <0>        -0.1159
     12 C10        -2.7693   -6.3279   -6.6520 C.3       1 <0>         0.0586
     13 N1         -3.9770   -6.9556   -7.2047 N.3       1 <0>        -0.5363
     14 C11        -5.1394   -6.7158   -6.3372 C.3       1 <0>         0.0125
     15 C12        -6.3844   -7.3343   -6.9789 C.3       1 <0>         0.0624
     16 O3         -6.1557   -8.7278   -7.2049 O.3       1 <0>        -0.3853
     17 C13        -5.0312   -8.9976   -8.0464 C.3       1 <0>         0.0626
     18 C14        -3.7726   -8.3961   -7.4156 C.3       1 <0>         0.0174
     19 N2          2.5140   -2.4746   -4.2003 N.ar      1 <0>        -0.4638
     20 C15         3.5263   -1.7948   -3.7255 C.ar      1 <0>         0.1795
     21 C16         3.5155   -0.3913   -3.6835 C.ar      1 <0>        -0.0920
     22 C17         2.3935    0.3014   -4.1631 C.ar      1 <0>         0.2694
     23 N3          2.3438    1.6811   -4.1402 N.pl3     1 <0>        -0.7078
     24 C18         2.7364    2.4130   -5.2639 C.ar      1 <0>         0.1989
     25 C19         3.0482    1.7569   -6.4481 C.ar      1 <0>        -0.1754
     26 C20         3.4359    2.4833   -7.5567 C.ar      1 <0>        -0.0673
     27 C21         3.5144    3.8624   -7.4889 C.ar      1 <0>        -0.1164
     28 C22         3.2048    4.5187   -6.3117 C.ar      1 <0>        -0.0688
     29 C23         2.8104    3.7988   -5.2011 C.ar      1 <0>        -0.1740
     30 C24         3.9389    4.6517   -8.7004 C.3       1 <0>        -0.0218
     31 C25         2.7240    5.0122   -9.5159 C.2       1 <0>        -0.1119
     32 C26         2.2705    4.1663  -10.5106 C.2       1 <0>        -0.1511
     33 C27         1.1748    4.5205  -11.2258 C.2       1 <0>        -0.1708
     34 S1          0.7487    6.0923  -10.4944 S.3       1 <0>         0.0269
     35 C28         2.0563    6.1683   -9.2813 C.2       1 <0>        -0.1716
     36 C29         4.6379    0.3255   -3.1572 C.1       1 <0>         0.2563
     37 N4          5.5283    0.8941   -2.7397 N.1       1 <0>        -0.3968
     38 H1         -1.9098    1.7838   -5.0687 H         1 <0>         0.0577
     39 H2         -1.1884    1.8298   -6.6953 H         1 <0>         0.0595
     40 H3         -2.9580    1.7936   -6.5072 H         1 <0>         0.1067
     41 H4          0.0829    1.2402   -5.1636 H         1 <0>         0.1484
     42 H5          0.4018   -3.7091   -5.1845 H         1 <0>         0.1557
     43 H6         -0.8049   -4.4387   -6.7021 H         1 <0>         0.0708
     44 H7         -1.5256   -4.4846   -5.0752 H         1 <0>         0.0683
     45 H8         -3.7921   -4.5202   -6.0803 H         1 <0>         0.0765
     46 H9         -3.0714   -4.4742   -7.7072 H         1 <0>         0.0864
     47 H10        -1.9046   -6.6140   -7.2507 H         1 <0>         0.0817
     48 H11        -2.6253   -6.6600   -5.6238 H         1 <0>         0.0405
     49 H12        -4.9669   -7.1730   -5.3629 H         1 <0>         0.0446
     50 H13        -5.2876   -5.6429   -6.2155 H         1 <0>         0.0904
     51 H14        -7.2377   -7.2089   -6.3124 H         1 <0>         0.0993
     52 H15        -6.5879   -6.8400   -7.9288 H         1 <0>         0.0611
     53 H16        -4.9059  -10.0752   -8.1520 H         1 <0>         0.0997
     54 H17        -5.1954   -8.5517   -9.0274 H         1 <0>         0.0611
     55 H18        -2.9230   -8.5496   -8.0810 H         1 <0>         0.0883
     56 H19        -3.5782   -8.8801   -6.4585 H         1 <0>         0.0448
     57 H20         4.3910   -2.3263   -3.3565 H         1 <0>         0.1731
     58 H21         2.0364    2.1422   -3.3442 H         1 <0>         0.4167
     59 H22         2.9878    0.6799   -6.5015 H         1 <0>         0.1185
     60 H23         3.6784    1.9739   -8.4776 H         1 <0>         0.1219
     61 H24         3.2675    5.5957   -6.2620 H         1 <0>         0.1235
     62 H25         2.5641    4.3123   -4.2834 H         1 <0>         0.1234
     63 H26         4.4457    5.5624   -8.3815 H         1 <0>         0.0804
     64 H27         4.6177    4.0510   -9.3059 H         1 <0>         0.0794
     65 H28         2.7817    3.2372  -10.7152 H         1 <0>         0.1320
     66 H29         0.6866    3.9897  -12.0297 H         1 <0>         0.1846
     67 H30         2.2625    6.9366   -8.5508 H         1 <0>         0.1828
@<TRIPOS>BOND
     1    1    2 1
     2    1   38 1
     3    1   39 1
     4    1   40 1
     5    2    3 1
     6    3    8 ar
     7    3    4 ar
     8    4    5 ar
     9    4   41 1
    10    5   22 ar
    11    5    6 ar
    12    6    7 ar
    13    6   19 ar
    14    7    8 ar
    15    7   42 1
    16    8    9 1
    17    9   10 1
    18   10   11 1
    19   10   43 1
    20   10   44 1
    21   11   12 1
    22   11   45 1
    23   11   46 1
    24   12   13 1
    25   12   47 1
    26   12   48 1
    27   13   18 1
    28   13   14 1
    29   14   15 1
    30   14   49 1
    31   14   50 1
    32   15   16 1
    33   15   51 1
    34   15   52 1
    35   16   17 1
    36   17   18 1
    37   17   53 1
    38   17   54 1
    39   18   55 1
    40   18   56 1
    41   19   20 ar
    42   20   21 ar
    43   20   57 1
    44   21   22 ar
    45   21   36 1
    46   22   23 1
    47   23   24 1
    48   23   58 1
    49   24   29 ar
    50   24   25 ar
    51   25   26 ar
    52   25   59 1
    53   26   27 ar
    54   26   60 1
    55   27   28 ar
    56   27   30 1
    57   28   29 ar
    58   28   61 1
    59   29   62 1
    60   30   31 1
    61   30   63 1
    62   30   64 1
    63   31   35 2
    64   31   32 1
    65   32   33 2
    66   32   65 1
    67   33   34 1
    68   33   66 1
    69   34   35 1
    70   35   67 1
    71   36   37 3
@<TRIPOS>MOLECULE
CHEMBL30359__1
   68    72     0     0     0
SMALL
USER_CHARGES

@<TRIPOS>ATOM
      1 C1         -2.0121    1.4392   -6.0977 C.3       1 <0>         0.0217
      2 O1         -1.9859    0.0107   -6.1265 O.3       1 <0>        -0.3023
      3 C2         -0.8672   -0.5960   -5.6475 C.ar      1 <0>         0.1223
      4 C3          0.1597    0.1630   -5.1645 C.ar      1 <0>        -0.1469
      5 C4          1.3149   -0.4600   -4.6697 C.ar      1 <0>        -0.0971
      6 C5          1.4125   -1.8726   -4.6727 C.ar      1 <0>         0.1614
      7 C6          0.3439   -2.6307   -5.1748 C.ar      1 <0>        -0.1706
      8 C7         -0.7813   -1.9951   -5.6489 C.ar      1 <0>         0.1490
      9 O2         -1.8172   -2.7314   -6.1286 O.3       1 <0>        -0.2941
     10 C8         -1.6696   -4.1526   -6.1034 C.3       1 <0>         0.0566
     11 C9         -2.9274   -4.8063   -6.6790 C.3       1 <0>        -0.1505
     12 C10        -2.7693   -6.3279   -6.6520 C.3       1 <0>        -0.0061
     13 N1         -3.9770   -6.9556   -7.2047 N.4       1 <0>        -0.3843
     14 C11        -5.1223   -6.6691   -6.3298 C.3       1 <0>        -0.0502
     15 C12        -6.3793   -7.3240   -6.9080 C.3       1 <0>         0.0362
     16 O3         -6.1591   -8.7309   -7.0415 O.3       1 <0>        -0.3563
     17 C13        -5.0380   -9.0606   -7.8663 C.3       1 <0>         0.0355
     18 C14        -3.7785   -8.4090   -7.2899 C.3       1 <0>        -0.0433
     19 N2          2.5140   -2.4746   -4.2003 N.ar      1 <0>        -0.4666
     20 C15         3.5263   -1.7948   -3.7255 C.ar      1 <0>         0.1847
     21 C16         3.5155   -0.3913   -3.6835 C.ar      1 <0>        -0.0820
     22 C17         2.3935    0.3014   -4.1631 C.ar      1 <0>         0.2721
     23 N3          2.3438    1.6811   -4.1402 N.pl3     1 <0>        -0.7098
     24 C18         2.7364    2.4130   -5.2639 C.ar      1 <0>         0.1948
     25 C19         3.0482    1.7569   -6.4481 C.ar      1 <0>        -0.1766
     26 C20         3.4359    2.4833   -7.5567 C.ar      1 <0>        -0.0683
     27 C21         3.5144    3.8624   -7.4889 C.ar      1 <0>        -0.1120
     28 C22         3.2048    4.5187   -6.3117 C.ar      1 <0>        -0.0678
     29 C23         2.8104    3.7988   -5.2011 C.ar      1 <0>        -0.1711
     30 C24         3.9389    4.6517   -8.7004 C.3       1 <0>        -0.0235
     31 C25         2.7240    5.0122   -9.5159 C.2       1 <0>        -0.1138
     32 C26         2.2705    4.1663  -10.5106 C.2       1 <0>        -0.1509
     33 C27         1.1748    4.5205  -11.2258 C.2       1 <0>        -0.1734
     34 S1          0.7487    6.0923  -10.4944 S.3       1 <0>         0.0309
     35 C28         2.0563    6.1683   -9.2813 C.2       1 <0>        -0.1697
     36 C29         4.6379    0.3255   -3.1572 C.1       1 <0>         0.2483
     37 N4          5.5283    0.8941   -2.7397 N.1       1 <0>        -0.3841
     38 H1         -1.9098    1.7838   -5.0687 H         1 <0>         0.0601
     39 H2         -1.1884    1.8298   -6.6953 H         1 <0>         0.0619
     40 H3         -2.9580    1.7936   -6.5072 H         1 <0>         0.1086
     41 H4          0.0829    1.2402   -5.1636 H         1 <0>         0.1513
     42 H5          0.4018   -3.7091   -5.1845 H         1 <0>         0.1531
     43 H6         -0.8049   -4.4387   -6.7021 H         1 <0>         0.0789
     44 H7         -1.5256   -4.4846   -5.0752 H         1 <0>         0.0786
     45 H8         -3.7921   -4.5202   -6.0803 H         1 <0>         0.1005
     46 H9         -3.0714   -4.4742   -7.7072 H         1 <0>         0.1013
     47 H10        -1.9046   -6.6140   -7.2507 H         1 <0>         0.1384
     48 H11        -2.6253   -6.6600   -5.6238 H         1 <0>         0.1362
     49 H12        -4.9287   -7.0694   -5.3346 H         1 <0>         0.1408
     50 H13        -5.2704   -5.5911   -6.2660 H         1 <0>         0.1447
     51 H14        -7.2215   -7.1492   -6.2385 H         1 <0>         0.1427
     52 H15        -6.5960   -6.8950   -7.8863 H         1 <0>         0.0819
     53 H16        -4.9095  -10.1427   -7.8903 H         1 <0>         0.1430
     54 H17        -5.2089   -8.6911   -8.8774 H         1 <0>         0.0819
     55 H18        -2.9292   -8.6226   -7.9388 H         1 <0>         0.1442
     56 H19        -3.5855   -8.8086   -6.2944 H         1 <0>         0.1403
     57 H20         4.3910   -2.3263   -3.3565 H         1 <0>         0.1762
     58 H21         2.0364    2.1422   -3.3442 H         1 <0>         0.4182
     59 H22         2.9878    0.6799   -6.5015 H         1 <0>         0.1164
     60 H23         3.6784    1.9739   -8.4776 H         1 <0>         0.1221
     61 H24         3.2675    5.5957   -6.2620 H         1 <0>         0.1256
     62 H25         2.5641    4.3123   -4.2834 H         1 <0>         0.1248
     63 H26         4.4457    5.5624   -8.3815 H         1 <0>         0.0821
     64 H27         4.6177    4.0510   -9.3059 H         1 <0>         0.0802
     65 H28         2.7817    3.2372  -10.7152 H         1 <0>         0.1311
     66 H29         0.6866    3.9897  -12.0297 H         1 <0>         0.1841
     67 H30         2.2625    6.9366   -8.5508 H         1 <0>         0.1837
     68 H31        -4.1566   -6.5859   -8.1262 H         1 <0>         0.4246
@<TRIPOS>BOND
     1    1    2 1
     2    1   38 1
     3    1   39 1
     4    1   40 1
     5    2    3 1
     6    3    8 ar
     7    3    4 ar
     8    4    5 ar
     9    4   41 1
    10    5   22 ar
    11    5    6 ar
    12    6    7 ar
    13    6   19 ar
    14    7    8 ar
    15    7   42 1
    16    8    9 1
    17    9   10 1
    18   10   11 1
    19   10   43 1
    20   10   44 1
    21   11   12 1
    22   11   45 1
    23   11   46 1
    24   12   13 1
    25   12   47 1
    26   12   48 1
    27   13   18 1
    28   13   14 1
    29   13   68 1
    30   14   15 1
    31   14   49 1
    32   14   50 1
    33   15   16 1
    34   15   51 1
    35   15   52 1
    36   16   17 1
    37   17   18 1
    38   17   53 1
    39   17   54 1
    40   18   55 1
    41   18   56 1
    42   19   20 ar
    43   20   21 ar
    44   20   57 1
    45   21   22 ar
    46   21   36 1
    47   22   23 1
    48   23   24 1
    49   23   58 1
    50   24   29 ar
    51   24   25 ar
    52   25   26 ar
    53   25   59 1
    54   26   27 ar
    55   26   60 1
    56   27   28 ar
    57   27   30 1
    58   28   29 ar
    59   28   61 1
    60   29   62 1
    61   30   31 1
    62   30   63 1
    63   30   64 1
    64   31   35 2
    65   31   32 1
    66   32   33 2
    67   32   65 1
    68   33   34 1
    69   33   66 1
    70   34   35 1
    71   35   67 1
    72   36   37 3
@<TRIPOS>MOLECULE
CHEMBL371095
   61    65     0     0     0
SMALL
USER_CHARGES

@<TRIPOS>ATOM
      1 C1         -2.7768   -7.9850    4.8798 C.ar      1 <0>        -0.1541
      2 C2         -1.8875   -8.1648    3.8364 C.ar      1 <0>        -0.0828
      3 C3         -0.8270   -7.2948    3.6736 C.ar      1 <0>        -0.1939
      4 C4         -0.6546   -6.2397    4.5582 C.ar      1 <0>         0.1217
      5 C5         -1.5486   -6.0616    5.6045 C.ar      1 <0>        -0.1477
      6 C6         -2.6074   -6.9345    5.7627 C.ar      1 <0>        -0.0819
      7 O1          0.3880   -5.3827    4.4006 O.3       1 <0>        -0.2555
      8 C7          1.2341   -5.5920    3.3571 C.ar      1 <0>         0.0377
      9 C8          0.9855   -4.9909    2.1315 C.ar      1 <0>        -0.0773
     10 C9          1.8443   -5.2029    1.0714 C.ar      1 <0>        -0.1635
     11 C10         2.9575   -6.0179    1.2321 C.ar      1 <0>         0.2093
     12 C11         3.2059   -6.6190    2.4595 C.ar      1 <0>        -0.1663
     13 C12         2.3488   -6.4020    3.5200 C.ar      1 <0>        -0.0771
     14 N1          3.8279   -6.2337    0.1582 N.pl3     1 <0>        -0.6997
     15 C13         4.9959   -6.9432    0.3486 C.ar      1 <0>         0.2393
     16 C14         5.0373   -8.3469    0.1757 C.ar      1 <0>        -0.0312
     17 C15         3.9053   -9.0838   -0.1947 C.ar      1 <0>        -0.2210
     18 C16         4.0282  -10.4531   -0.3438 C.ar      1 <0>         0.3985
     19 N2          5.1892  -11.0677   -0.1426 N.ar      1 <0>        -0.5085
     20 C17         6.2805  -10.4268    0.2053 C.ar      1 <0>         0.2207
     21 C18         6.2592   -9.0343    0.3816 C.ar      1 <0>         0.0389
     22 N3          7.3602   -8.3587    0.7358 N.ar      1 <0>        -0.4275
     23 C19         7.3514   -7.0611    0.9028 C.ar      1 <0>         0.1526
     24 C20         6.1859   -6.2985    0.7148 C.ar      1 <0>        -0.0485
     25 C21         6.2123   -4.8789    0.9003 C.1       1 <0>         0.2496
     26 N4          6.2332   -3.7526    1.0474 N.1       1 <0>        -0.3843
     27 N5          2.9135  -11.2027   -0.7116 N.pl3     1 <0>        -0.7194
     28 C22         1.6266  -10.5397   -0.9366 C.3       1 <0>         0.1301
     29 C23         0.5771  -11.5823   -1.3269 C.3       1 <0>         0.0444
     30 N6         -0.7133  -10.9175   -1.5524 N.3       1 <0>        -0.5322
     31 C24        -1.2401  -10.3517   -0.3020 C.3       1 <0>         0.0123
     32 C25        -2.5525   -9.6188   -0.5928 C.3       1 <0>         0.0635
     33 O2         -3.4727  -10.5250   -1.2070 O.3       1 <0>        -0.3833
     34 C26        -2.9920  -11.0944   -2.4277 C.3       1 <0>         0.0629
     35 C27        -1.6841  -11.8422   -2.1555 C.3       1 <0>         0.0184
     36 H1         -3.6079   -8.6638    5.0027 H         1 <0>         0.1244
     37 H2         -2.0219   -8.9863    3.1484 H         1 <0>         0.1228
     38 H3         -0.1324   -7.4358    2.8587 H         1 <0>         0.1262
     39 H4         -1.4165   -5.2414    6.2946 H         1 <0>         0.1316
     40 H5         -3.3035   -6.7963    6.5768 H         1 <0>         0.1306
     41 H6          0.1199   -4.3573    2.0067 H         1 <0>         0.1348
     42 H7          1.6502   -4.7355    0.1173 H         1 <0>         0.1334
     43 H8          4.0713   -7.2528    2.5853 H         1 <0>         0.1259
     44 H9          2.5438   -6.8663    4.4755 H         1 <0>         0.1327
     45 H10         3.6103   -5.8845   -0.7202 H         1 <0>         0.4188
     46 H11         2.9573   -8.5934   -0.3597 H         1 <0>         0.1408
     47 H12         7.1994  -10.9736    0.3571 H         1 <0>         0.1827
     48 H13         8.2654   -6.5619    1.1888 H         1 <0>         0.1757
     49 H14         2.9892  -12.1638   -0.8189 H         1 <0>         0.4079
     50 H15         1.3140  -10.0338   -0.0231 H         1 <0>         0.0659
     51 H16         1.7295   -9.8095   -1.7393 H         1 <0>         0.0758
     52 H17         0.8897  -12.0882   -2.2403 H         1 <0>         0.0863
     53 H18         0.4742  -12.3125   -0.5241 H         1 <0>         0.0458
     54 H19        -1.4222  -11.1545    0.4125 H         1 <0>         0.0466
     55 H20        -0.5163   -9.6508    0.1138 H         1 <0>         0.0879
     56 H21        -2.9760   -9.2467    0.3401 H         1 <0>         0.0999
     57 H22        -2.3611   -8.7828   -1.2655 H         1 <0>         0.0611
     58 H23        -3.7334  -11.7894   -2.8219 H         1 <0>         0.1009
     59 H24        -2.8134  -10.3013   -3.1537 H         1 <0>         0.0616
     60 H25        -1.2843  -12.2294   -3.0927 H         1 <0>         0.0893
     61 H26        -1.8733  -12.6689   -1.4706 H         1 <0>         0.0465
@<TRIPOS>BOND
     1    1    6 ar
     2    1    2 ar
     3    1   36 1
     4    2    3 ar
     5    2   37 1
     6    3    4 ar
     7    3   38 1
     8    4    5 ar
     9    4    7 1
    10    5    6 ar
    11    5   39 1
    12    6   40 1
    13    7    8 1
    14    8   13 ar
    15    8    9 ar
    16    9   10 ar
    17    9   41 1
    18   10   11 ar
    19   10   42 1
    20   11   12 ar
    21   11   14 1
    22   12   13 ar
    23   12   43 1
    24   13   44 1
    25   14   15 1
    26   14   45 1
    27   15   24 ar
    28   15   16 ar
    29   16   21 ar
    30   16   17 ar
    31   17   18 ar
    32   17   46 1
    33   18   19 ar
    34   18   27 1
    35   19   20 ar
    36   20   21 ar
    37   20   47 1
    38   21   22 ar
    39   22   23 ar
    40   23   24 ar
    41   23   48 1
    42   24   25 1
    43   25   26 3
    44   27   28 1
    45   27   49 1
    46   28   29 1
    47   28   50 1
    48   28   51 1
    49   29   30 1
    50   29   52 1
    51   29   53 1
    52   30   35 1
    53   30   31 1
    54   31   32 1
    55   31   54 1
    56   31   55 1
    57   32   33 1
    58   32   56 1
    59   32   57 1
    60   33   34 1
    61   34   35 1
    62   34   58 1
    63   34   59 1
    64   35   60 1
    65   35   61 1
@<TRIPOS>MOLECULE
CHEMBL371095__1
   62    66     0     0     0
SMALL
USER_CHARGES

@<TRIPOS>ATOM
      1 C1         -2.7748   -7.9869    4.8820 C.ar      1 <0>        -0.1528
      2 C2         -1.8852   -8.1669    3.8389 C.ar      1 <0>        -0.0892
      3 C3         -0.8253   -7.2963    3.6754 C.ar      1 <0>        -0.1994
      4 C4         -0.6539   -6.2402    4.5590 C.ar      1 <0>         0.1241
      5 C5         -1.5481   -6.0617    5.6049 C.ar      1 <0>        -0.1426
      6 C6         -2.6063   -6.9353    5.7639 C.ar      1 <0>        -0.0771
      7 O1          0.3881   -5.3826    4.4006 O.3       1 <0>        -0.2537
      8 C7          1.2342   -5.5919    3.3572 C.ar      1 <0>         0.0420
      9 C8          0.9856   -4.9908    2.1316 C.ar      1 <0>        -0.0783
     10 C9          1.8443   -5.2029    1.0714 C.ar      1 <0>        -0.1656
     11 C10         2.9575   -6.0179    1.2321 C.ar      1 <0>         0.2044
     12 C11         3.2059   -6.6189    2.4595 C.ar      1 <0>        -0.1666
     13 C12         2.3489   -6.4020    3.5200 C.ar      1 <0>        -0.0765
     14 N1          3.8279   -6.2337    0.1582 N.pl3     1 <0>        -0.7004
     15 C13         4.9959   -6.9432    0.3486 C.ar      1 <0>         0.2359
     16 C14         5.0373   -8.3469    0.1757 C.ar      1 <0>        -0.0349
     17 C15         3.9053   -9.0838   -0.1947 C.ar      1 <0>        -0.2153
     18 C16         4.0282  -10.4531   -0.3438 C.ar      1 <0>         0.3879
     19 N2          5.1892  -11.0677   -0.1426 N.ar      1 <0>        -0.5052
     20 C17         6.2805  -10.4268    0.2053 C.ar      1 <0>         0.2284
     21 C18         6.2592   -9.0343    0.3816 C.ar      1 <0>         0.0506
     22 N3          7.3602   -8.3587    0.7358 N.ar      1 <0>        -0.4269
     23 C19         7.3514   -7.0611    0.9028 C.ar      1 <0>         0.1653
     24 C20         6.1859   -6.2985    0.7148 C.ar      1 <0>        -0.0378
     25 C21         6.2123   -4.8789    0.9003 C.1       1 <0>         0.2401
     26 N4          6.2332   -3.7526    1.0474 N.1       1 <0>        -0.3692
     27 N5          2.9135  -11.2027   -0.7116 N.pl3     1 <0>        -0.7250
     28 C22         1.6266  -10.5397   -0.9366 C.3       1 <0>         0.1075
     29 C23         0.5771  -11.5823   -1.3269 C.3       1 <0>        -0.0211
     30 N6         -0.7133  -10.9175   -1.5524 N.4       1 <0>        -0.3811
     31 C24        -1.1931  -10.3380   -0.2902 C.3       1 <0>        -0.0528
     32 C25        -2.5375   -9.6457   -0.5279 C.3       1 <0>         0.0368
     33 O2         -3.4685  -10.5932   -1.0584 O.3       1 <0>        -0.3537
     34 C26        -3.0345  -11.2036   -2.2770 C.3       1 <0>         0.0356
     35 C27        -1.6910  -11.8988   -2.0426 C.3       1 <0>        -0.0428
     36 H1         -3.6054   -8.6661    5.0054 H         1 <0>         0.1256
     37 H2         -2.0188   -8.9893    3.1516 H         1 <0>         0.1167
     38 H3         -0.1305   -7.4376    2.8607 H         1 <0>         0.1226
     39 H4         -1.4167   -5.2408    6.2942 H         1 <0>         0.1351
     40 H5         -3.3026   -6.7969    6.5777 H         1 <0>         0.1341
     41 H6          0.1200   -4.3571    2.0067 H         1 <0>         0.1363
     42 H7          1.6503   -4.7355    0.1173 H         1 <0>         0.1333
     43 H8          4.0713   -7.2528    2.5853 H         1 <0>         0.1262
     44 H9          2.5439   -6.8662    4.4755 H         1 <0>         0.1349
     45 H10         3.6103   -5.8845   -0.7202 H         1 <0>         0.4185
     46 H11         2.9573   -8.5934   -0.3597 H         1 <0>         0.1363
     47 H12         7.1994  -10.9736    0.3571 H         1 <0>         0.1885
     48 H13         8.2654   -6.5619    1.1888 H         1 <0>         0.1815
     49 H14         2.9892  -12.1638   -0.8189 H         1 <0>         0.4145
     50 H15         1.3140  -10.0338   -0.0231 H         1 <0>         0.0844
     51 H16         1.7295   -9.8095   -1.7393 H         1 <0>         0.0847
     52 H17         0.8897  -12.0882   -2.2403 H         1 <0>         0.1432
     53 H18         0.4742  -12.3125   -0.5241 H         1 <0>         0.1413
     54 H19        -1.3173  -11.1292    0.4491 H         1 <0>         0.1432
     55 H20        -0.4686   -9.6098    0.0742 H         1 <0>         0.1427
     56 H21        -2.9162   -9.2524    0.4155 H         1 <0>         0.1438
     57 H22        -2.4058   -8.8286   -1.2371 H         1 <0>         0.0827
     58 H23        -3.7728  -11.9378   -2.5994 H         1 <0>         0.1445
     59 H24        -2.9198  -10.4398   -3.0460 H         1 <0>         0.0826
     60 H25        -1.3361  -12.3292   -2.9790 H         1 <0>         0.1454
     61 H26        -1.8149  -12.6894   -1.3025 H         1 <0>         0.1418
     62 H27        -0.5994  -10.1852   -2.2371 H         1 <0>         0.4252
@<TRIPOS>BOND
     1    1    6 ar
     2    1    2 ar
     3    1   36 1
     4    2    3 ar
     5    2   37 1
     6    3    4 ar
     7    3   38 1
     8    4    5 ar
     9    4    7 1
    10    5    6 ar
    11    5   39 1
    12    6   40 1
    13    7    8 1
    14    8   13 ar
    15    8    9 ar
    16    9   10 ar
    17    9   41 1
    18   10   11 ar
    19   10   42 1
    20   11   12 ar
    21   11   14 1
    22   12   13 ar
    23   12   43 1
    24   13   44 1
    25   14   15 1
    26   14   45 1
    27   15   24 ar
    28   15   16 ar
    29   16   21 ar
    30   16   17 ar
    31   17   18 ar
    32   17   46 1
    33   18   19 ar
    34   18   27 1
    35   19   20 ar
    36   20   21 ar
    37   20   47 1
    38   21   22 ar
    39   22   23 ar
    40   23   24 ar
    41   23   48 1
    42   24   25 1
    43   25   26 3
    44   27   28 1
    45   27   49 1
    46   28   29 1
    47   28   50 1
    48   28   51 1
    49   29   30 1
    50   29   52 1
    51   29   53 1
    52   30   35 1
    53   30   31 1
    54   30   62 1
    55   31   32 1
    56   31   54 1
    57   31   55 1
    58   32   33 1
    59   32   56 1
    60   32   57 1
    61   33   34 1
    62   34   35 1
    63   34   58 1
    64   34   59 1
    65   35   60 1
    66   35   61 1
@<TRIPOS>MOLECULE
CHEMBL316510
   34    37     0     0     0
SMALL
USER_CHARGES

@<TRIPOS>ATOM
      1 C1         -0.0167    1.3798    0.0096 C.ar      1 <0>        -0.0759
      2 C2          1.1490    2.1088    0.0024 C.ar      1 <0>        -0.1209
      3 C3          2.4000    1.4695   -0.0134 C.ar      1 <0>         0.1311
      4 C4          2.3858    0.0670   -0.0207 C.ar      1 <0>        -0.1552
      5 C5          1.2205   -0.6614   -0.0135 C.ar      1 <0>        -0.0389
      6 C6          0.0021   -0.0041    0.0020 C.ar      1 <0>        -0.1188
      7 S1          4.1088   -0.3653   -0.0387 S.3       1 <0>         0.0787
      8 C7          4.7802    1.2889   -0.0361 C.2       1 <0>         0.2371
      9 C8          6.1006    1.6856   -0.0467 C.2       1 <0>        -0.1679
     10 C9          6.4468    3.1523   -0.0425 C.3       1 <0>         0.1955
     11 C10         7.2653    3.4718    1.1818 C.2       1 <0>         0.0832
     12 S2          8.7600    2.8331    1.6189 S.3       1 <0>         0.1231
     13 C11         8.9781    3.7268    3.1354 C.ar      1 <0>        -0.1624
     14 C12         7.7980    4.5031    3.1907 C.ar      1 <0>         0.0758
     15 C13         7.6504    5.3529    4.3063 C.ar      1 <0>        -0.0533
     16 C14         8.6117    5.4048    5.2692 C.ar      1 <0>        -0.1094
     17 C15         9.7615    4.6319    5.1909 C.ar      1 <0>        -0.0885
     18 C16         9.9422    3.7867    4.1117 C.ar      1 <0>        -0.0653
     19 N1          6.9789    4.3077    2.1368 N.2       1 <0>        -0.4888
     20 C17         7.2233    3.4767   -1.2502 C.1       1 <0>         0.1983
     21 N2          7.8226    3.7270   -2.1823 N.1       1 <0>        -0.3783
     22 C18         7.1431    0.7040   -0.0617 C.1       1 <0>         0.2539
     23 N3          7.9701   -0.0748   -0.0736 N.1       1 <0>        -0.3935
     24 N4          3.6495    2.0651   -0.0216 N.pl3     1 <0>        -0.6341
     25 H1         -0.9648    1.8967    0.0260 H         1 <0>         0.1393
     26 H2          1.1024    3.1878    0.0086 H         1 <0>         0.1350
     27 H3          1.2550   -1.7408   -0.0196 H         1 <0>         0.1408
     28 H4         -0.9215   -0.5638    0.0078 H         1 <0>         0.1428
     29 H5          6.7674    5.9681    4.3976 H         1 <0>         0.1359
     30 H6          8.4762    6.0637    6.1141 H         1 <0>         0.1375
     31 H7         10.5100    4.6904    5.9672 H         1 <0>         0.1414
     32 H8         10.8322    3.1795    4.0374 H         1 <0>         0.1370
     33 H9          3.7254    3.0321   -0.0172 H         1 <0>         0.4186
     34 H10         5.5301    3.7420   -0.0307 H         1 <0>         0.1463
@<TRIPOS>BOND
     1    1    6 ar
     2    1    2 ar
     3    1   25 1
     4    2    3 ar
     5    2   26 1
     6    3   24 1
     7    3    4 ar
     8    4    5 ar
     9    4    7 1
    10    5    6 ar
    11    5   27 1
    12    6   28 1
    13    7    8 1
    14    8    9 2
    15    8   24 1
    16    9   10 1
    17    9   22 1
    18   10   11 1
    19   10   20 1
    20   10   34 1
    21   11   19 2
    22   11   12 1
    23   12   13 1
    24   13   18 ar
    25   13   14 ar
    26   14   15 ar
    27   14   19 1
    28   15   16 ar
    29   15   29 1
    30   16   17 ar
    31   16   30 1
    32   17   18 ar
    33   17   31 1
    34   18   32 1
    35   20   21 3
    36   22   23 3
    37   24   33 1
@<TRIPOS>MOLECULE
CHEMBL316510__1
   33    36     0     0     0
SMALL
USER_CHARGES

@<TRIPOS>ATOM
      1 C1         -0.0167    1.3835    0.0096 C.ar      1 <0>        -0.0789
      2 C2          1.1460    2.1147    0.0025 C.ar      1 <0>        -0.1614
      3 C3          2.3941    1.4726   -0.0133 C.ar      1 <0>         0.1655
      4 C4          2.3865    0.0628   -0.0207 C.ar      1 <0>        -0.2025
      5 C5          1.2129   -0.6667   -0.0126 C.ar      1 <0>        -0.0370
      6 C6          0.0021   -0.0041    0.0020 C.ar      1 <0>        -0.1607
      7 S1          4.1115   -0.3482   -0.0400 S.3       1 <0>         0.1429
      8 C7          4.7469    1.2083   -0.0380 C.2       1 <0>        -0.0570
      9 C8          6.1604    1.6034   -0.0506 C.2       1 <0>         0.0659
     10 C9          7.1545    0.6305   -0.0659 C.2       1 <0>        -0.2164
     11 C10         8.5710    1.0265   -0.0786 C.2       1 <0>         0.2994
     12 S2          9.2775    2.6687   -0.0696 S.3       1 <0>        -0.0824
     13 C11        10.9835    2.1737   -0.0951 C.ar      1 <0>        -0.2016
     14 C12        10.8862    0.7590   -0.1090 C.ar      1 <0>         0.1516
     15 C13        12.1133    0.0499   -0.1315 C.ar      1 <0>        -0.1147
     16 C14        13.2997    0.7123   -0.1386 C.ar      1 <0>        -0.1002
     17 C15        13.3619    2.0997   -0.1246 C.ar      1 <0>        -0.1606
     18 C16        12.1893    2.8312   -0.1029 C.ar      1 <0>        -0.0462
     19 N1          9.6443    0.2612   -0.0936 N.2       1 <0>        -0.6028
     20 C17         6.7988   -0.7566   -0.0694 C.1       1 <0>         0.3083
     21 N2          6.5166   -1.8570   -0.0721 N.1       1 <0>        -0.4859
     22 C18         6.5161    2.9905   -0.0472 C.1       1 <0>         0.2640
     23 N3          6.7983    4.0909   -0.0445 N.1       1 <0>        -0.4267
     24 N4          3.6527    2.0197   -0.0229 N.pl3     1 <0>        -0.6297
     25 H1         -0.9655    1.8993    0.0260 H         1 <0>         0.1224
     26 H2          1.0995    3.1937    0.0087 H         1 <0>         0.1186
     27 H3          1.2427   -1.7463   -0.0191 H         1 <0>         0.1276
     28 H4         -0.9232   -0.5610    0.0079 H         1 <0>         0.1259
     29 H5         12.1052   -1.0300   -0.1429 H         1 <0>         0.1187
     30 H6         14.2185    0.1450   -0.1551 H         1 <0>         0.1170
     31 H7         14.3178    2.6024   -0.1301 H         1 <0>         0.1211
     32 H8         12.2209    3.9107   -0.0919 H         1 <0>         0.1166
     33 H9          3.7631    2.9834   -0.0192 H         1 <0>         0.3991
@<TRIPOS>BOND
     1    1    6 ar
     2    1    2 ar
     3    1   25 1
     4    2    3 ar
     5    2   26 1
     6    3   24 1
     7    3    4 ar
     8    4    5 ar
     9    4    7 1
    10    5    6 ar
    11    5   27 1
    12    6   28 1
    13    7    8 1
    14    8    9 2
    15    8   24 1
    16    9   10 1
    17    9   22 1
    18   10   11 1
    19   10   20 1
    20   11   19 2
    21   11   12 1
    22   12   13 1
    23   13   18 ar
    24   13   14 ar
    25   14   15 ar
    26   14   19 1
    27   15   16 ar
    28   15   29 1
    29   16   17 ar
    30   16   30 1
    31   17   18 ar
    32   17   31 1
    33   18   32 1
    34   20   21 3
    35   22   23 3
    36   24   33 1
@<TRIPOS>MOLECULE
CHEMBL316510__2
   33    36     0     0     0
SMALL
USER_CHARGES

@<TRIPOS>ATOM
      1 C1          0.7272    0.9725   -2.9300 C.ar      1 <0>        -0.0737
      2 C2          1.7543    1.7730   -2.4933 C.ar      1 <0>        -0.1530
      3 C3          2.8474    1.2221   -1.8062 C.ar      1 <0>         0.1675
      4 C4          2.8310   -0.1716   -1.5938 C.ar      1 <0>        -0.1844
      5 C5          1.7939   -0.9710   -2.0352 C.ar      1 <0>        -0.0353
      6 C6          0.7342   -0.3974   -2.7086 C.ar      1 <0>        -0.1576
      7 S1          4.3451   -0.4622   -0.7173 S.3       1 <0>         0.0904
      8 C7          4.9144    1.1184   -0.6561 C.2       1 <0>         0.0038
      9 C8          6.1604    1.6034   -0.0506 C.2       1 <0>         0.0495
     10 C9          6.5061    2.9471   -0.1523 C.2       1 <0>        -0.2449
     11 C10         7.9194    3.3355   -0.2758 C.2       1 <0>         0.3104
     12 S2          9.3699    2.2918   -0.3278 S.3       1 <0>        -0.0905
     13 C11        10.5704    3.5921   -0.4829 C.ar      1 <0>        -0.1970
     14 C12         9.7572    4.7540   -0.4836 C.ar      1 <0>         0.1553
     15 C13        10.4384    5.9917   -0.5970 C.ar      1 <0>        -0.1180
     16 C14        11.7928    6.0337   -0.6983 C.ar      1 <0>        -0.0988
     17 C15        12.5620    4.8773   -0.6947 C.ar      1 <0>        -0.1630
     18 C16        11.9388    3.6484   -0.5855 C.ar      1 <0>        -0.0445
     19 N1          8.4399    4.5420   -0.3821 N.2       1 <0>        -0.6124
     20 C17         5.4860    3.9520   -0.1368 C.1       1 <0>         0.3131
     21 N2          4.6768    4.7492   -0.1245 N.1       1 <0>        -0.5235
     22 C18         7.0201    0.6936    0.6448 C.1       1 <0>         0.2710
     23 N3          7.7021   -0.0283    1.1964 N.1       1 <0>        -0.4324
     24 N4          3.9579    1.8470   -1.2965 N.pl3     1 <0>        -0.6234
     25 H1         -0.1056    1.4192   -3.4528 H         1 <0>         0.1262
     26 H2          1.7208    2.8361   -2.6805 H         1 <0>         0.1238
     27 H3          1.8129   -2.0359   -1.8561 H         1 <0>         0.1301
     28 H4         -0.0831   -1.0098   -3.0599 H         1 <0>         0.1291
     29 H5          9.8742    6.9125   -0.6034 H         1 <0>         0.1174
     30 H6         12.2841    6.9917   -0.7841 H         1 <0>         0.1164
     31 H7         13.6372    4.9377   -0.7769 H         1 <0>         0.1212
     32 H8         12.5230    2.7400   -0.5811 H         1 <0>         0.1172
     33 H9          4.0617    2.8066   -1.3924 H         1 <0>         0.4102
@<TRIPOS>BOND
     1    1    6 ar
     2    1    2 ar
     3    1   25 1
     4    2    3 ar
     5    2   26 1
     6    3   24 1
     7    3    4 ar
     8    4    5 ar
     9    4    7 1
    10    5    6 ar
    11    5   27 1
    12    6   28 1
    13    7    8 1
    14    8    9 2
    15    8   24 1
    16    9   10 1
    17    9   22 1
    18   10   11 1
    19   10   20 1
    20   11   19 2
    21   11   12 1
    22   12   13 1
    23   13   18 ar
    24   13   14 ar
    25   14   15 ar
    26   14   19 1
    27   15   16 ar
    28   15   29 1
    29   16   17 ar
    30   16   30 1
    31   17   18 ar
    32   17   31 1
    33   18   32 1
    34   20   21 3
    35   22   23 3
    36   24   33 1
@<TRIPOS>MOLECULE
CHEMBL316510__3
   34    37     0     0     0
SMALL
USER_CHARGES

@<TRIPOS>ATOM
      1 C1          7.4515    0.6662   -6.1637 C.ar      1 <0>        -0.0752
      2 C2          7.3889    1.5072   -5.0777 C.ar      1 <0>        -0.1260
      3 C3          6.9076    1.0516   -3.8387 C.ar      1 <0>         0.1359
      4 C4          6.5019   -0.2898   -3.7800 C.ar      1 <0>        -0.1559
      5 C5          6.5642   -1.1300   -4.8659 C.ar      1 <0>        -0.0387
      6 C6          7.0436   -0.6532   -6.0743 C.ar      1 <0>        -0.1225
      7 S1          5.9691   -0.4895   -2.0971 S.3       1 <0>         0.0644
      8 C7          6.2929    1.1737   -1.5348 C.2       1 <0>         0.2066
      9 C8          6.0959    1.7195   -0.2743 C.2       1 <0>        -0.0754
     10 C9          6.5444    3.1061    0.0130 C.2       1 <0>        -0.0755
     11 C10         7.8955    3.4203   -0.0253 C.2       1 <0>         0.2067
     12 S2          8.6795    5.0134    0.1605 S.3       1 <0>         0.0644
     13 C11        10.3649    4.4826   -0.0234 C.ar      1 <0>        -0.1559
     14 C12        10.2533    3.0984   -0.2204 C.ar      1 <0>         0.1359
     15 C13        11.4546    2.3922   -0.4003 C.ar      1 <0>        -0.1259
     16 C14        12.6660    3.0424   -0.3803 C.ar      1 <0>        -0.0752
     17 C15        12.7435    4.4100   -0.1835 C.ar      1 <0>        -0.1225
     18 C16        11.5759    5.1323   -0.0041 C.ar      1 <0>        -0.0387
     19 N1          8.9686    2.5841   -0.2096 N.pl3     1 <0>        -0.6344
     20 C17         5.5825    4.1186    0.3295 C.1       1 <0>         0.2669
     21 N2          4.8194    4.9218    0.5806 N.1       1 <0>        -0.4130
     22 C18         5.4603    0.9459    0.7496 C.1       1 <0>         0.2669
     23 N3          4.9561    0.3322    1.5618 N.1       1 <0>        -0.4130
     24 N4          6.7866    1.7757   -2.6656 N.pl3     1 <0>        -0.6344
     25 H1          7.8218    1.0436   -7.1055 H         1 <0>         0.1376
     26 H2          7.7146    2.5320   -5.1783 H         1 <0>         0.1316
     27 H3          6.2414   -2.1568   -4.7769 H         1 <0>         0.1396
     28 H4          7.0979   -1.3023   -6.9357 H         1 <0>         0.1416
     29 H5         11.4261    1.3238   -0.5560 H         1 <0>         0.1316
     30 H6         13.5742    2.4750   -0.5205 H         1 <0>         0.1376
     31 H7         13.7021    4.9075   -0.1704 H         1 <0>         0.1416
     32 H8         11.6165    6.2003    0.1508 H         1 <0>         0.1396
     33 H9          8.8260    1.6329   -0.3354 H         1 <0>         0.4171
     34 H10         7.0507    2.7087   -2.6423 H         1 <0>         0.4171
@<TRIPOS>BOND
     1    1    6 ar
     2    1    2 ar
     3    1   25 1
     4    2    3 ar
     5    2   26 1
     6    3   24 1
     7    3    4 ar
     8    4    5 ar
     9    4    7 1
    10    5    6 ar
    11    5   27 1
    12    6   28 1
    13    7    8 1
    14    8    9 2
    15    8   24 1
    16    9   10 1
    17    9   22 1
    18   10   11 2
    19   10   20 1
    20   11   19 1
    21   11   12 1
    22   12   13 1
    23   13   18 ar
    24   13   14 ar
    25   14   15 ar
    26   14   19 1
    27   15   16 ar
    28   15   29 1
    29   16   17 ar
    30   16   30 1
    31   17   18 ar
    32   17   31 1
    33   18   32 1
    34   19   33 1
    35   20   21 3
    36   22   23 3
    37   24   34 1
@<TRIPOS>MOLECULE
CHEMBL316510__4
   34    37     0     0     0
SMALL
USER_CHARGES

@<TRIPOS>ATOM
      1 C1         -0.0167    1.3798    0.0096 C.ar      1 <0>        -0.0750
      2 C2          1.1490    2.1088    0.0024 C.ar      1 <0>        -0.1227
      3 C3          2.4000    1.4695   -0.0134 C.ar      1 <0>         0.1304
      4 C4          2.3858    0.0670   -0.0207 C.ar      1 <0>        -0.1559
      5 C5          1.2205   -0.6614   -0.0135 C.ar      1 <0>        -0.0376
      6 C6          0.0021   -0.0041    0.0020 C.ar      1 <0>        -0.1191
      7 S1          4.1088   -0.3653   -0.0387 S.3       1 <0>         0.0885
      8 C7          4.7802    1.2889   -0.0361 C.2       1 <0>         0.2343
      9 C8          6.1006    1.6856   -0.0467 C.2       1 <0>        -0.1702
     10 C9          7.1977    0.6526   -0.0625 C.3       1 <0>         0.1962
     11 C10         8.0386    0.8317   -1.3002 C.2       1 <0>         0.0868
     12 S2          8.9271    2.1864   -1.7564 S.3       1 <0>         0.1146
     13 C11         9.5794    1.5542   -3.2799 C.ar      1 <0>        -0.1617
     14 C12         9.0218    0.2558   -3.3212 C.ar      1 <0>         0.0763
     15 C13         9.3505   -0.5396   -4.4383 C.ar      1 <0>        -0.0520
     16 C14        10.1670   -0.0574   -5.4154 C.ar      1 <0>        -0.1099
     17 C15        10.7014    1.2216   -5.3507 C.ar      1 <0>        -0.0887
     18 C16        10.4023    2.0312   -4.2705 C.ar      1 <0>        -0.0661
     19 N1          8.2462   -0.0279   -2.2545 N.2       1 <0>        -0.4842
     20 C17         8.0421    0.8152    1.1322 C.1       1 <0>         0.2009
     21 N2          8.6938    0.9408    2.0542 N.1       1 <0>        -0.3800
     22 C18         6.4296    3.0793   -0.0427 C.1       1 <0>         0.2504
     23 N3          6.6905    4.1850   -0.0395 N.1       1 <0>        -0.4022
     24 N4          3.6495    2.0651   -0.0216 N.pl3     1 <0>        -0.6355
     25 H1         -0.9648    1.8967    0.0260 H         1 <0>         0.1390
     26 H2          1.1024    3.1878    0.0086 H         1 <0>         0.1329
     27 H3          1.2550   -1.7408   -0.0196 H         1 <0>         0.1425
     28 H4         -0.9215   -0.5638    0.0078 H         1 <0>         0.1433
     29 H5          8.9516   -1.5400   -4.5192 H         1 <0>         0.1372
     30 H6         10.4046   -0.6856   -6.2611 H         1 <0>         0.1375
     31 H7         11.3467    1.5819   -6.1382 H         1 <0>         0.1410
     32 H8         10.8112    3.0288   -4.2067 H         1 <0>         0.1362
     33 H9          3.7254    3.0321   -0.0172 H         1 <0>         0.4183
     34 H10         6.7577   -0.3447   -0.0634 H         1 <0>         0.1547
@<TRIPOS>BOND
     1    1    6 ar
     2    1    2 ar
     3    1   25 1
     4    2    3 ar
     5    2   26 1
     6    3   24 1
     7    3    4 ar
     8    4    5 ar
     9    4    7 1
    10    5    6 ar
    11    5   27 1
    12    6   28 1
    13    7    8 1
    14    8    9 2
    15    8   24 1
    16    9   10 1
    17    9   22 1
    18   10   11 1
    19   10   20 1
    20   10   34 1
    21   11   19 2
    22   11   12 1
    23   12   13 1
    24   13   18 ar
    25   13   14 ar
    26   14   15 ar
    27   14   19 1
    28   15   16 ar
    29   15   29 1
    30   16   17 ar
    31   16   30 1
    32   17   18 ar
    33   17   31 1
    34   18   32 1
    35   20   21 3
    36   22   23 3
    37   24   33 1
@<TRIPOS>MOLECULE
CHEMBL288081
   67    71     0     0     0
SMALL
USER_CHARGES

@<TRIPOS>ATOM
      1 C1         -2.0121    1.4392   -6.0977 C.3       1 <0>         0.0229
      2 O1         -1.9859    0.0107   -6.1265 O.3       1 <0>        -0.2979
      3 C2         -0.8672   -0.5960   -5.6475 C.ar      1 <0>         0.1260
      4 C3          0.1597    0.1630   -5.1645 C.ar      1 <0>        -0.1560
      5 C4          1.3149   -0.4600   -4.6697 C.ar      1 <0>        -0.1002
      6 C5          1.4125   -1.8726   -4.6727 C.ar      1 <0>         0.1670
      7 C6          0.3439   -2.6307   -5.1748 C.ar      1 <0>        -0.1783
      8 C7         -0.7813   -1.9951   -5.6489 C.ar      1 <0>         0.1596
      9 O2         -1.8172   -2.7314   -6.1286 O.3       1 <0>        -0.2925
     10 C8         -1.6696   -4.1526   -6.1034 C.3       1 <0>         0.0549
     11 C9         -2.9274   -4.8063   -6.6790 C.3       1 <0>        -0.1159
     12 C10        -2.7693   -6.3279   -6.6520 C.3       1 <0>         0.0586
     13 N1         -3.9770   -6.9556   -7.2047 N.3       1 <0>        -0.5363
     14 C11        -5.1394   -6.7158   -6.3372 C.3       1 <0>         0.0125
     15 C12        -6.3844   -7.3343   -6.9789 C.3       1 <0>         0.0624
     16 O3         -6.1557   -8.7278   -7.2049 O.3       1 <0>        -0.3853
     17 C13        -5.0312   -8.9976   -8.0464 C.3       1 <0>         0.0626
     18 C14        -3.7726   -8.3961   -7.4156 C.3       1 <0>         0.0174
     19 N2          2.5140   -2.4746   -4.2003 N.ar      1 <0>        -0.4635
     20 C15         3.5263   -1.7948   -3.7255 C.ar      1 <0>         0.1794
     21 C16         3.5155   -0.3913   -3.6835 C.ar      1 <0>        -0.0915
     22 C17         2.3935    0.3014   -4.1631 C.ar      1 <0>         0.2683
     23 N3          2.3438    1.6811   -4.1402 N.pl3     1 <0>        -0.7070
     24 C18         2.7364    2.4130   -5.2639 C.ar      1 <0>         0.2026
     25 C19         3.0482    1.7569   -6.4481 C.ar      1 <0>        -0.1756
     26 C20         3.4359    2.4833   -7.5567 C.ar      1 <0>        -0.0638
     27 C21         3.5144    3.8624   -7.4889 C.ar      1 <0>        -0.1237
     28 C22         3.2048    4.5187   -6.3117 C.ar      1 <0>        -0.0639
     29 C23         2.8104    3.7988   -5.2011 C.ar      1 <0>        -0.1750
     30 C24         3.9389    4.6517   -8.7004 C.3       1 <0>         0.0071
     31 C25         2.7240    5.0122   -9.5159 C.2       1 <0>        -0.1276
     32 C26         1.9374    6.1131   -9.4347 C.2       1 <0>        -0.1613
     33 C27         0.8630    6.2343  -10.2959 C.2       1 <0>        -0.1543
     34 C28         0.6277    5.2487  -11.1962 C.2       1 <0>        -0.1772
     35 S1          1.9519    4.1040  -10.8449 S.3       1 <0>         0.0311
     36 C29         4.6379    0.3255   -3.1572 C.1       1 <0>         0.2561
     37 N4          5.5283    0.8941   -2.7397 N.1       1 <0>        -0.3966
     38 H1         -1.9098    1.7838   -5.0687 H         1 <0>         0.0576
     39 H2         -1.1884    1.8298   -6.6953 H         1 <0>         0.0597
     40 H3         -2.9580    1.7936   -6.5072 H         1 <0>         0.1066
     41 H4          0.0829    1.2402   -5.1636 H         1 <0>         0.1483
     42 H5          0.4018   -3.7091   -5.1845 H         1 <0>         0.1558
     43 H6         -0.8049   -4.4387   -6.7021 H         1 <0>         0.0710
     44 H7         -1.5256   -4.4846   -5.0752 H         1 <0>         0.0683
     45 H8         -3.7921   -4.5202   -6.0803 H         1 <0>         0.0765
     46 H9         -3.0714   -4.4742   -7.7072 H         1 <0>         0.0865
     47 H10        -1.9046   -6.6140   -7.2507 H         1 <0>         0.0817
     48 H11        -2.6253   -6.6600   -5.6238 H         1 <0>         0.0404
     49 H12        -4.9669   -7.1730   -5.3629 H         1 <0>         0.0446
     50 H13        -5.2876   -5.6429   -6.2155 H         1 <0>         0.0904
     51 H14        -7.2377   -7.2089   -6.3124 H         1 <0>         0.0992
     52 H15        -6.5879   -6.8400   -7.9288 H         1 <0>         0.0611
     53 H16        -4.9059  -10.0752   -8.1520 H         1 <0>         0.0997
     54 H17        -5.1954   -8.5517   -9.0274 H         1 <0>         0.0611
     55 H18        -2.9230   -8.5496   -8.0810 H         1 <0>         0.0883
     56 H19        -3.5782   -8.8801   -6.4585 H         1 <0>         0.0448
     57 H20         4.3910   -2.3263   -3.3565 H         1 <0>         0.1732
     58 H21         2.0364    2.1422   -3.3442 H         1 <0>         0.4171
     59 H22         2.9878    0.6799   -6.5015 H         1 <0>         0.1200
     60 H23         3.6784    1.9739   -8.4776 H         1 <0>         0.1235
     61 H24         3.2675    5.5957   -6.2620 H         1 <0>         0.1251
     62 H25         2.5641    4.3123   -4.2834 H         1 <0>         0.1245
     63 H26         4.4457    5.5624   -8.3815 H         1 <0>         0.0952
     64 H27         4.6177    4.0510   -9.3059 H         1 <0>         0.0876
     65 H28         2.1467    6.8839   -8.7078 H         1 <0>         0.1308
     66 H29         0.2203    7.1012  -10.2519 H         1 <0>         0.1321
     67 H30        -0.1552    5.1765  -11.9366 H         1 <0>         0.1841
@<TRIPOS>BOND
     1    1    2 1
     2    1   38 1
     3    1   39 1
     4    1   40 1
     5    2    3 1
     6    3    8 ar
     7    3    4 ar
     8    4    5 ar
     9    4   41 1
    10    5   22 ar
    11    5    6 ar
    12    6    7 ar
    13    6   19 ar
    14    7    8 ar
    15    7   42 1
    16    8    9 1
    17    9   10 1
    18   10   11 1
    19   10   43 1
    20   10   44 1
    21   11   12 1
    22   11   45 1
    23   11   46 1
    24   12   13 1
    25   12   47 1
    26   12   48 1
    27   13   18 1
    28   13   14 1
    29   14   15 1
    30   14   49 1
    31   14   50 1
    32   15   16 1
    33   15   51 1
    34   15   52 1
    35   16   17 1
    36   17   18 1
    37   17   53 1
    38   17   54 1
    39   18   55 1
    40   18   56 1
    41   19   20 ar
    42   20   21 ar
    43   20   57 1
    44   21   22 ar
    45   21   36 1
    46   22   23 1
    47   23   24 1
    48   23   58 1
    49   24   29 ar
    50   24   25 ar
    51   25   26 ar
    52   25   59 1
    53   26   27 ar
    54   26   60 1
    55   27   28 ar
    56   27   30 1
    57   28   29 ar
    58   28   61 1
    59   29   62 1
    60   30   31 1
    61   30   63 1
    62   30   64 1
    63   31   35 1
    64   31   32 2
    65   32   33 1
    66   32   65 1
    67   33   34 2
    68   33   66 1
    69   34   35 1
    70   34   67 1
    71   36   37 3
@<TRIPOS>MOLECULE
CHEMBL288081__1
   68    72     0     0     0
SMALL
USER_CHARGES

@<TRIPOS>ATOM
      1 C1         -2.0121    1.4392   -6.0977 C.3       1 <0>         0.0217
      2 O1         -1.9859    0.0107   -6.1265 O.3       1 <0>        -0.3021
      3 C2         -0.8672   -0.5960   -5.6475 C.ar      1 <0>         0.1227
      4 C3          0.1597    0.1630   -5.1645 C.ar      1 <0>        -0.1473
      5 C4          1.3149   -0.4600   -4.6697 C.ar      1 <0>        -0.0969
      6 C5          1.4125   -1.8726   -4.6727 C.ar      1 <0>         0.1616
      7 C6          0.3439   -2.6307   -5.1748 C.ar      1 <0>        -0.1705
      8 C7         -0.7813   -1.9951   -5.6489 C.ar      1 <0>         0.1493
      9 O2         -1.8172   -2.7314   -6.1286 O.3       1 <0>        -0.2941
     10 C8         -1.6696   -4.1526   -6.1034 C.3       1 <0>         0.0565
     11 C9         -2.9274   -4.8063   -6.6790 C.3       1 <0>        -0.1505
     12 C10        -2.7693   -6.3279   -6.6520 C.3       1 <0>        -0.0061
     13 N1         -3.9770   -6.9556   -7.2047 N.4       1 <0>        -0.3843
     14 C11        -5.1223   -6.6691   -6.3298 C.3       1 <0>        -0.0502
     15 C12        -6.3793   -7.3240   -6.9080 C.3       1 <0>         0.0362
     16 O3         -6.1591   -8.7309   -7.0415 O.3       1 <0>        -0.3563
     17 C13        -5.0380   -9.0606   -7.8663 C.3       1 <0>         0.0355
     18 C14        -3.7785   -8.4090   -7.2899 C.3       1 <0>        -0.0433
     19 N2          2.5140   -2.4746   -4.2003 N.ar      1 <0>        -0.4662
     20 C15         3.5263   -1.7948   -3.7255 C.ar      1 <0>         0.1847
     21 C16         3.5155   -0.3913   -3.6835 C.ar      1 <0>        -0.0815
     22 C17         2.3935    0.3014   -4.1631 C.ar      1 <0>         0.2710
     23 N3          2.3438    1.6811   -4.1402 N.pl3     1 <0>        -0.7091
     24 C18         2.7364    2.4130   -5.2639 C.ar      1 <0>         0.1985
     25 C19         3.0482    1.7569   -6.4481 C.ar      1 <0>        -0.1768
     26 C20         3.4359    2.4833   -7.5567 C.ar      1 <0>        -0.0647
     27 C21         3.5144    3.8624   -7.4889 C.ar      1 <0>        -0.1194
     28 C22         3.2048    4.5187   -6.3117 C.ar      1 <0>        -0.0628
     29 C23         2.8104    3.7988   -5.2011 C.ar      1 <0>        -0.1721
     30 C24         3.9389    4.6517   -8.7004 C.3       1 <0>         0.0054
     31 C25         2.7240    5.0122   -9.5159 C.2       1 <0>        -0.1278
     32 C26         1.9374    6.1131   -9.4347 C.2       1 <0>        -0.1597
     33 C27         0.8630    6.2343  -10.2959 C.2       1 <0>        -0.1531
     34 C28         0.6277    5.2487  -11.1962 C.2       1 <0>        -0.1768
     35 S1          1.9519    4.1040  -10.8449 S.3       1 <0>         0.0267
     36 C29         4.6379    0.3255   -3.1572 C.1       1 <0>         0.2482
     37 N4          5.5283    0.8941   -2.7397 N.1       1 <0>        -0.3838
     38 H1         -1.9098    1.7838   -5.0687 H         1 <0>         0.0601
     39 H2         -1.1884    1.8298   -6.6953 H         1 <0>         0.0621
     40 H3         -2.9580    1.7936   -6.5072 H         1 <0>         0.1084
     41 H4          0.0829    1.2402   -5.1636 H         1 <0>         0.1513
     42 H5          0.4018   -3.7091   -5.1845 H         1 <0>         0.1532
     43 H6         -0.8049   -4.4387   -6.7021 H         1 <0>         0.0790
     44 H7         -1.5256   -4.4846   -5.0752 H         1 <0>         0.0786
     45 H8         -3.7921   -4.5202   -6.0803 H         1 <0>         0.1004
     46 H9         -3.0714   -4.4742   -7.7072 H         1 <0>         0.1014
     47 H10        -1.9046   -6.6140   -7.2507 H         1 <0>         0.1385
     48 H11        -2.6253   -6.6600   -5.6238 H         1 <0>         0.1362
     49 H12        -4.9287   -7.0694   -5.3346 H         1 <0>         0.1408
     50 H13        -5.2704   -5.5911   -6.2660 H         1 <0>         0.1447
     51 H14        -7.2215   -7.1492   -6.2385 H         1 <0>         0.1426
     52 H15        -6.5960   -6.8950   -7.8863 H         1 <0>         0.0819
     53 H16        -4.9095  -10.1427   -7.8903 H         1 <0>         0.1430
     54 H17        -5.2089   -8.6911   -8.8774 H         1 <0>         0.0819
     55 H18        -2.9292   -8.6226   -7.9388 H         1 <0>         0.1442
     56 H19        -3.5855   -8.8086   -6.2944 H         1 <0>         0.1403
     57 H20         4.3910   -2.3263   -3.3565 H         1 <0>         0.1764
     58 H21         2.0364    2.1422   -3.3442 H         1 <0>         0.4185
     59 H22         2.9878    0.6799   -6.5015 H         1 <0>         0.1179
     60 H23         3.6784    1.9739   -8.4776 H         1 <0>         0.1237
     61 H24         3.2675    5.5957   -6.2620 H         1 <0>         0.1271
     62 H25         2.5641    4.3123   -4.2834 H         1 <0>         0.1259
     63 H26         4.4457    5.5624   -8.3815 H         1 <0>         0.0969
     64 H27         4.6177    4.0510   -9.3059 H         1 <0>         0.0885
     65 H28         2.1467    6.8839   -8.7078 H         1 <0>         0.1319
     66 H29         0.2203    7.1012  -10.2519 H         1 <0>         0.1332
     67 H30        -0.1552    5.1765  -11.9366 H         1 <0>         0.1842
     68 H31        -4.1566   -6.5859   -8.1262 H         1 <0>         0.4247
@<TRIPOS>BOND
     1    1    2 1
     2    1   38 1
     3    1   39 1
     4    1   40 1
     5    2    3 1
     6    3    8 ar
     7    3    4 ar
     8    4    5 ar
     9    4   41 1
    10    5   22 ar
    11    5    6 ar
    12    6    7 ar
    13    6   19 ar
    14    7    8 ar
    15    7   42 1
    16    8    9 1
    17    9   10 1
    18   10   11 1
    19   10   43 1
    20   10   44 1
    21   11   12 1
    22   11   45 1
    23   11   46 1
    24   12   13 1
    25   12   47 1
    26   12   48 1
    27   13   18 1
    28   13   14 1
    29   13   68 1
    30   14   15 1
    31   14   49 1
    32   14   50 1
    33   15   16 1
    34   15   51 1
    35   15   52 1
    36   16   17 1
    37   17   18 1
    38   17   53 1
    39   17   54 1
    40   18   55 1
    41   18   56 1
    42   19   20 ar
    43   20   21 ar
    44   20   57 1
    45   21   22 ar
    46   21   36 1
    47   22   23 1
    48   23   24 1
    49   23   58 1
    50   24   29 ar
    51   24   25 ar
    52   25   26 ar
    53   25   59 1
    54   26   27 ar
    55   26   60 1
    56   27   28 ar
    57   27   30 1
    58   28   29 ar
    59   28   61 1
    60   29   62 1
    61   30   31 1
    62   30   63 1
    63   30   64 1
    64   31   35 1
    65   31   32 2
    66   32   33 1
    67   32   65 1
    68   33   34 2
    69   33   66 1
    70   34   35 1
    71   34   67 1
    72   36   37 3
@<TRIPOS>MOLECULE
CHEMBL31806
   51    54     0     0     0
SMALL
USER_CHARGES

@<TRIPOS>ATOM
      1 C1         -6.7505    1.3585    4.3987 C.3       1 <0>         0.0229
      2 O1         -6.7525   -0.0705    4.3974 O.3       1 <0>        -0.2987
      3 C2         -6.2619   -0.6875    3.2893 C.ar      1 <0>         0.1253
      4 C3         -5.7930    0.0624    2.2493 C.ar      1 <0>        -0.1560
      5 C4         -5.2864   -0.5711    1.1051 C.ar      1 <0>        -0.1005
      6 C5         -5.2630   -1.9850    1.0321 C.ar      1 <0>         0.1664
      7 C6         -5.7510   -2.7338    2.1138 C.ar      1 <0>        -0.1775
      8 C7         -6.2371   -2.0876    3.2277 C.ar      1 <0>         0.1553
      9 O2         -6.7032   -2.8147    4.2764 O.3       1 <0>        -0.2964
     10 C8         -6.6513   -4.2374    4.1535 C.3       1 <0>         0.0196
     11 N1         -4.7791   -2.5971   -0.0588 N.ar      1 <0>        -0.4637
     12 C9         -4.3168   -1.9263   -1.0828 C.ar      1 <0>         0.1794
     13 C10        -4.3012   -0.5223   -1.0964 C.ar      1 <0>        -0.0920
     14 C11        -4.7939    0.1807    0.0133 C.ar      1 <0>         0.2692
     15 N2         -4.7969    1.5612    0.0390 N.pl3     1 <0>        -0.7077
     16 C12        -5.9340    2.2650   -0.3662 C.ar      1 <0>         0.1991
     17 C13        -7.1056    1.5815   -0.6663 C.ar      1 <0>        -0.1754
     18 C14        -8.2275    2.2803   -1.0665 C.ar      1 <0>        -0.0679
     19 C15        -8.1855    3.6587   -1.1690 C.ar      1 <0>        -0.1170
     20 C16        -7.0209    4.3423   -0.8710 C.ar      1 <0>        -0.0688
     21 C17        -5.8971    3.6503   -0.4642 C.ar      1 <0>        -0.1740
     22 C18        -9.4116    4.4177   -1.6070 C.3       1 <0>        -0.0386
     23 C19       -10.2340    4.7840   -0.3985 C.ar      1 <0>        -0.0743
     24 C20       -11.2099    3.9197    0.0613 C.ar      1 <0>        -0.1153
     25 C21       -11.9642    4.2557    1.1699 C.ar      1 <0>        -0.1176
     26 C22       -11.7424    5.4558    1.8189 C.ar      1 <0>        -0.1250
     27 C23       -10.7659    6.3198    1.3597 C.ar      1 <0>        -0.1181
     28 C24       -10.0086    5.9818    0.2537 C.ar      1 <0>        -0.1156
     29 C25        -3.7881    0.1846   -2.2312 C.1       1 <0>         0.2564
     30 N3         -3.3812    0.7454   -3.1314 N.1       1 <0>        -0.3971
     31 H1         -7.1667    1.7216    5.3384 H         1 <0>         0.1066
     32 H2         -5.7281    1.7205    4.2903 H         1 <0>         0.0578
     33 H3         -7.3551    1.7235    3.5684 H         1 <0>         0.0596
     34 H4         -5.8124    1.1407    2.3073 H         1 <0>         0.1483
     35 H5         -5.7405   -3.8130    2.0746 H         1 <0>         0.1571
     36 H6         -7.2444   -4.5498    3.2939 H         1 <0>         0.0626
     37 H7         -5.6171   -4.5527    4.0152 H         1 <0>         0.0626
     38 H8         -7.0528   -4.6951    5.0576 H         1 <0>         0.1073
     39 H9         -3.9378   -2.4657   -1.9383 H         1 <0>         0.1732
     40 H10        -4.0097    2.0425    0.3383 H         1 <0>         0.4168
     41 H11        -7.1389    0.5049   -0.5872 H         1 <0>         0.1189
     42 H12        -9.1387    1.7495   -1.3000 H         1 <0>         0.1224
     43 H13        -6.9914    5.4188   -0.9524 H         1 <0>         0.1238
     44 H14        -4.9893    4.1851   -0.2270 H         1 <0>         0.1236
     45 H15        -9.1096    5.3253   -2.1297 H         1 <0>         0.0808
     46 H16       -10.0055    3.7941   -2.2752 H         1 <0>         0.0806
     47 H17       -11.3832    2.9820   -0.4458 H         1 <0>         0.1196
     48 H18       -12.7272    3.5807    1.5287 H         1 <0>         0.1210
     49 H19       -12.3323    5.7187    2.6846 H         1 <0>         0.1203
     50 H20       -10.5928    7.2576    1.8666 H         1 <0>         0.1209
     51 H21        -9.2432    6.6552   -0.1029 H         1 <0>         0.1197
@<TRIPOS>BOND
     1    1    2 1
     2    1   31 1
     3    1   32 1
     4    1   33 1
     5    2    3 1
     6    3    8 ar
     7    3    4 ar
     8    4    5 ar
     9    4   34 1
    10    5   14 ar
    11    5    6 ar
    12    6    7 ar
    13    6   11 ar
    14    7    8 ar
    15    7   35 1
    16    8    9 1
    17    9   10 1
    18   10   36 1
    19   10   37 1
    20   10   38 1
    21   11   12 ar
    22   12   13 ar
    23   12   39 1
    24   13   14 ar
    25   13   29 1
    26   14   15 1
    27   15   16 1
    28   15   40 1
    29   16   21 ar
    30   16   17 ar
    31   17   18 ar
    32   17   41 1
    33   18   19 ar
    34   18   42 1
    35   19   20 ar
    36   19   22 1
    37   20   21 ar
    38   20   43 1
    39   21   44 1
    40   22   23 1
    41   22   45 1
    42   22   46 1
    43   23   28 ar
    44   23   24 ar
    45   24   25 ar
    46   24   47 1
    47   25   26 ar
    48   25   48 1
    49   26   27 ar
    50   26   49 1
    51   27   28 ar
    52   27   50 1
    53   28   51 1
    54   29   30 3
@<TRIPOS>MOLECULE
CHEMBL31149
   74    78     0     0     0
SMALL
USER_CHARGES

@<TRIPOS>ATOM
      1 C1         -2.5398    1.9097   -7.0416 C.3       1 <0>         0.0227
      2 O1         -2.6189    0.4834   -7.0797 O.3       1 <0>        -0.2983
      3 C2         -1.6347   -0.2066   -6.4439 C.ar      1 <0>         0.1250
      4 C3         -0.6371    0.4720   -5.8050 C.ar      1 <0>        -0.1553
      5 C4          0.3792   -0.2369   -5.1480 C.ar      1 <0>        -0.1014
      6 C5          0.3676   -1.6528   -5.1494 C.ar      1 <0>         0.1668
      7 C6         -0.6681   -2.3275   -5.8134 C.ar      1 <0>        -0.1782
      8 C7         -1.6567   -1.6081   -6.4457 C.ar      1 <0>         0.1591
      9 O2         -2.6617   -2.2636   -7.0829 O.3       1 <0>        -0.2927
     10 C8         -2.6286   -3.6918   -7.0492 C.3       1 <0>         0.0550
     11 C9         -3.8315   -4.2480   -7.8138 C.3       1 <0>        -0.1159
     12 C10        -3.7961   -5.7771   -7.7777 C.3       1 <0>         0.0586
     13 N1         -4.9510   -6.3112   -8.5118 N.3       1 <0>        -0.5364
     14 C11        -6.2092   -5.9808   -7.8270 C.3       1 <0>         0.0125
     15 C12        -7.3867   -6.5029   -8.6546 C.3       1 <0>         0.0624
     16 O3         -7.2338   -7.9104   -8.8569 O.3       1 <0>        -0.3854
     17 C13        -6.0192   -8.2678   -9.5220 C.3       1 <0>         0.0626
     18 C14        -4.8278   -7.7636   -8.7032 C.3       1 <0>         0.0174
     19 N2          1.3360   -2.3368   -4.5223 N.ar      1 <0>        -0.4644
     20 C15         2.3143   -1.7361   -3.8943 C.ar      1 <0>         0.1798
     21 C16         2.4052   -0.3359   -3.8417 C.ar      1 <0>        -0.0929
     22 C17         1.4244    0.4403   -4.4778 C.ar      1 <0>         0.2714
     23 N3          1.4776    1.8192   -4.4499 N.pl3     1 <0>        -0.7089
     24 C18         2.0902    2.5171   -5.4968 C.ar      1 <0>         0.1641
     25 C19         2.5250    1.8350   -6.6259 C.ar      1 <0>        -0.1373
     26 C20         3.1289    2.5245   -7.6586 C.ar      1 <0>        -0.1080
     27 C21         3.3015    3.8980   -7.5687 C.ar      1 <0>         0.0951
     28 C22         2.8680    4.5800   -6.4411 C.ar      1 <0>        -0.1667
     29 C23         2.2587    3.8930   -5.4099 C.ar      1 <0>        -0.1351
     30 O4          3.8964    4.5762   -8.5862 O.3       1 <0>        -0.3108
     31 C24         4.0613    5.9856   -8.4174 C.3       1 <0>         0.0870
     32 C25         2.7733    6.7025   -8.8272 C.3       1 <0>        -0.1443
     33 C26         2.9499    8.2115   -8.6464 C.3       1 <0>        -0.1174
     34 C27         4.1056    8.6983   -9.5230 C.3       1 <0>        -0.1245
     35 C28         5.3936    7.9814   -9.1132 C.3       1 <0>        -0.1168
     36 C29         5.2170    6.4724   -9.2939 C.3       1 <0>        -0.1150
     37 C30         3.4874    0.2934   -3.1464 C.1       1 <0>         0.2571
     38 N4          4.3459    0.7926   -2.5948 N.1       1 <0>        -0.3980
     39 H1         -2.5674    2.2476   -6.0057 H         1 <0>         0.0577
     40 H2         -1.6082    2.2345   -7.5050 H         1 <0>         0.0597
     41 H3         -3.3835    2.3350   -7.5851 H         1 <0>         0.1063
     42 H4         -0.6304    1.5520   -5.8057 H         1 <0>         0.1489
     43 H5         -0.6919   -3.4072   -5.8246 H         1 <0>         0.1556
     44 H6         -1.7079   -4.0450   -7.5136 H         1 <0>         0.0709
     45 H7         -2.6671   -4.0318   -6.0143 H         1 <0>         0.0682
     46 H8         -4.7522   -3.8948   -7.3494 H         1 <0>         0.0764
     47 H9         -3.7930   -3.9080   -8.8487 H         1 <0>         0.0864
     48 H10        -2.8754   -6.1303   -8.2421 H         1 <0>         0.0817
     49 H11        -3.8346   -6.1171   -6.7428 H         1 <0>         0.0404
     50 H12        -6.2210   -6.4478   -6.8422 H         1 <0>         0.0446
     51 H13        -6.2916   -4.8993   -7.7187 H         1 <0>         0.0905
     52 H14        -8.3187   -6.3107   -8.1230 H         1 <0>         0.0992
     53 H15        -7.4062   -5.9965   -9.6196 H         1 <0>         0.0611
     54 H16        -5.9622   -9.3521   -9.6178 H         1 <0>         0.0996
     55 H17        -5.9990   -7.8127  -10.5122 H         1 <0>         0.0611
     56 H18        -3.9019   -7.9835   -9.2346 H         1 <0>         0.0883
     57 H19        -4.8176   -8.2591   -7.7324 H         1 <0>         0.0447
     58 H20         3.0701   -2.3319   -3.4041 H         1 <0>         0.1728
     59 H21         1.0904    2.3046   -3.7047 H         1 <0>         0.4162
     60 H22         2.3910    0.7657   -6.6960 H         1 <0>         0.1255
     61 H23         3.4674    1.9943   -8.5365 H         1 <0>         0.1326
     62 H24         3.0031    5.6493   -6.3718 H         1 <0>         0.1322
     63 H25         1.9169    4.4248   -4.5342 H         1 <0>         0.1262
     64 H26         4.2814    6.2030   -7.3722 H         1 <0>         0.0719
     65 H27         2.5532    6.4850   -9.8723 H         1 <0>         0.0742
     66 H28         1.9500    6.3557   -8.2027 H         1 <0>         0.0681
     67 H29         2.0323    8.7222   -8.9384 H         1 <0>         0.0685
     68 H30         3.1700    8.4289   -7.6013 H         1 <0>         0.0630
     69 H31         3.8855    8.4808  -10.5681 H         1 <0>         0.0655
     70 H32         4.2314    9.7733   -9.3942 H         1 <0>         0.0662
     71 H33         6.2170    8.3282   -9.7376 H         1 <0>         0.0720
     72 H34         5.6137    8.1988   -8.0680 H         1 <0>         0.0644
     73 H35         6.1346    5.9616   -9.0019 H         1 <0>         0.0719
     74 H36         4.9969    6.2549  -10.3390 H         1 <0>         0.0745
@<TRIPOS>BOND
     1    1    2 1
     2    1   39 1
     3    1   40 1
     4    1   41 1
     5    2    3 1
     6    3    8 ar
     7    3    4 ar
     8    4    5 ar
     9    4   42 1
    10    5   22 ar
    11    5    6 ar
    12    6    7 ar
    13    6   19 ar
    14    7    8 ar
    15    7   43 1
    16    8    9 1
    17    9   10 1
    18   10   11 1
    19   10   44 1
    20   10   45 1
    21   11   12 1
    22   11   46 1
    23   11   47 1
    24   12   13 1
    25   12   48 1
    26   12   49 1
    27   13   18 1
    28   13   14 1
    29   14   15 1
    30   14   50 1
    31   14   51 1
    32   15   16 1
    33   15   52 1
    34   15   53 1
    35   16   17 1
    36   17   18 1
    37   17   54 1
    38   17   55 1
    39   18   56 1
    40   18   57 1
    41   19   20 ar
    42   20   21 ar
    43   20   58 1
    44   21   22 ar
    45   21   37 1
    46   22   23 1
    47   23   24 1
    48   23   59 1
    49   24   29 ar
    50   24   25 ar
    51   25   26 ar
    52   25   60 1
    53   26   27 ar
    54   26   61 1
    55   27   28 ar
    56   27   30 1
    57   28   29 ar
    58   28   62 1
    59   29   63 1
    60   30   31 1
    61   31   36 1
    62   31   32 1
    63   31   64 1
    64   32   33 1
    65   32   65 1
    66   32   66 1
    67   33   34 1
    68   33   67 1
    69   33   68 1
    70   34   35 1
    71   34   69 1
    72   34   70 1
    73   35   36 1
    74   35   71 1
    75   35   72 1
    76   36   73 1
    77   36   74 1
    78   37   38 3
@<TRIPOS>MOLECULE
CHEMBL31149__1
   75    79     0     0     0
SMALL
USER_CHARGES

@<TRIPOS>ATOM
      1 C1         -4.8742    1.8079    5.7182 C.3       1 <0>         0.0215
      2 O1         -4.8319    0.3825    5.8108 O.3       1 <0>        -0.3026
      3 C2         -4.7560   -0.3099    4.6429 C.ar      1 <0>         0.1216
      4 C3         -4.7183    0.3657    3.4572 C.ar      1 <0>        -0.1465
      5 C4         -4.6395   -0.3457    2.2510 C.ar      1 <0>        -0.0980
      6 C5         -4.5994   -1.7609    2.2667 C.ar      1 <0>         0.1615
      7 C6         -4.6398   -2.4326    3.4980 C.ar      1 <0>        -0.1705
      8 C7         -4.7113   -1.7107    4.6678 C.ar      1 <0>         0.1488
      9 O2         -4.7443   -2.3630    5.8590 O.3       1 <0>        -0.2943
     10 C8         -4.6958   -3.7906    5.8185 C.3       1 <0>         0.0566
     11 C9         -4.7428   -4.3432    7.2444 C.3       1 <0>        -0.1505
     12 C10        -4.6908   -5.8717    7.2011 C.3       1 <0>        -0.0061
     13 N1         -4.7359   -6.4022    8.5702 N.4       1 <0>        -0.3843
     14 C11        -3.5244   -5.9935    9.2942 C.3       1 <0>        -0.0502
     15 C12        -3.5739   -6.5473   10.7204 C.3       1 <0>         0.0361
     16 O3         -3.7001   -7.9711   10.6692 O.3       1 <0>        -0.3563
     17 C13        -4.8540   -8.4195    9.9527 C.3       1 <0>         0.0355
     18 C14        -4.8069   -7.8692    8.5251 C.3       1 <0>        -0.0433
     19 N2         -4.5232   -2.4473    1.1169 N.ar      1 <0>        -0.4672
     20 C15        -4.4834   -1.8495   -0.0465 C.ar      1 <0>         0.1850
     21 C16        -4.5185   -0.4501   -0.1563 C.ar      1 <0>        -0.0830
     22 C17        -4.5985    0.3284    1.0084 C.ar      1 <0>         0.2742
     23 N3         -4.6356    1.7067    0.9435 N.pl3     1 <0>        -0.7107
     24 C18        -5.8657    2.3738    0.9339 C.ar      1 <0>         0.1593
     25 C19        -7.0434    1.6626    1.1243 C.ar      1 <0>        -0.1382
     26 C20        -8.2567    2.3218    1.1151 C.ar      1 <0>        -0.1099
     27 C21        -8.2995    3.6940    0.9159 C.ar      1 <0>         0.0994
     28 C22        -7.1238    4.4051    0.7252 C.ar      1 <0>        -0.1660
     29 C23        -5.9092    3.7484    0.7398 C.ar      1 <0>        -0.1318
     30 O4         -9.4948    4.3424    0.9070 O.3       1 <0>        -0.3104
     31 C24        -9.4665    5.7521    0.6749 C.3       1 <0>         0.0866
     32 C25        -9.1956    6.4807    1.9927 C.3       1 <0>        -0.1434
     33 C26        -9.1653    7.9900    1.7442 C.3       1 <0>        -0.1178
     34 C27       -10.5139    8.4412    1.1798 C.3       1 <0>        -0.1250
     35 C28       -10.7848    7.7126   -0.1381 C.3       1 <0>        -0.1174
     36 C29       -10.8151    6.2032    0.1105 C.3       1 <0>        -0.1149
     37 C30        -4.4731    0.1760   -1.4434 C.1       1 <0>         0.2492
     38 N4         -4.4370    0.6727   -2.4644 N.1       1 <0>        -0.3853
     39 H1         -4.9339    2.2353    6.7192 H         1 <0>         0.1082
     40 H2         -3.9720    2.1668    5.2230 H         1 <0>         0.0602
     41 H3         -5.7492    2.1087    5.1420 H         1 <0>         0.0620
     42 H4         -4.7494    1.4452    3.4479 H         1 <0>         0.1518
     43 H5         -4.6105   -3.5118    3.5280 H         1 <0>         0.1529
     44 H6         -5.5491   -4.1673    5.2546 H         1 <0>         0.0789
     45 H7         -3.7720   -4.1092    5.3356 H         1 <0>         0.0785
     46 H8         -3.8894   -3.9665    7.8084 H         1 <0>         0.1003
     47 H9         -5.6666   -4.0246    7.7273 H         1 <0>         0.1013
     48 H10        -5.5442   -6.2483    6.6371 H         1 <0>         0.1385
     49 H11        -3.7670   -6.1903    6.7182 H         1 <0>         0.1362
     50 H12        -2.6454   -6.3852    8.7823 H         1 <0>         0.1408
     51 H13        -3.4709   -4.9053    9.3283 H         1 <0>         0.1447
     52 H14        -2.6566   -6.2818   11.2459 H         1 <0>         0.1426
     53 H15        -4.4304   -6.1245   11.2455 H         1 <0>         0.0819
     54 H16        -4.8631   -9.5090    9.9227 H         1 <0>         0.1429
     55 H17        -5.7543   -8.0608   10.4515 H         1 <0>         0.0819
     56 H18        -5.7054   -8.1735    7.9882 H         1 <0>         0.1442
     57 H19        -3.9274   -8.2602    8.0135 H         1 <0>         0.1403
     58 H20        -4.4218   -2.4470   -0.9440 H         1 <0>         0.1759
     59 H21        -3.8091    2.2128    0.9046 H         1 <0>         0.4177
     60 H22        -7.0103    0.5943    1.2791 H         1 <0>         0.1232
     61 H23        -9.1726    1.7689    1.2628 H         1 <0>         0.1327
     62 H24        -7.1581    5.4733    0.5698 H         1 <0>         0.1340
     63 H25        -4.9936    4.3028    0.5961 H         1 <0>         0.1275
     64 H26        -8.6770    5.9869   -0.0390 H         1 <0>         0.0726
     65 H27        -9.9851    6.2458    2.7066 H         1 <0>         0.0741
     66 H28        -8.2348    6.1593    2.3948 H         1 <0>         0.0670
     67 H29        -8.9723    8.5091    2.6830 H         1 <0>         0.0690
     68 H30        -8.3758    8.2249    1.0303 H         1 <0>         0.0635
     69 H31       -11.3034    8.2063    1.8937 H         1 <0>         0.0656
     70 H32       -10.4923    9.5165    1.0027 H         1 <0>         0.0675
     71 H33       -11.7456    8.0340   -0.5401 H         1 <0>         0.0733
     72 H34        -9.9953    7.9475   -0.8520 H         1 <0>         0.0650
     73 H35       -11.0080    5.6842   -0.8283 H         1 <0>         0.0723
     74 H36       -11.6046    5.9684    0.8244 H         1 <0>         0.0746
     75 H37        -5.5497   -6.0404    9.0445 H         1 <0>         0.4246
@<TRIPOS>BOND
     1    1    2 1
     2    1   39 1
     3    1   40 1
     4    1   41 1
     5    2    3 1
     6    3    8 ar
     7    3    4 ar
     8    4    5 ar
     9    4   42 1
    10    5   22 ar
    11    5    6 ar
    12    6    7 ar
    13    6   19 ar
    14    7    8 ar
    15    7   43 1
    16    8    9 1
    17    9   10 1
    18   10   11 1
    19   10   44 1
    20   10   45 1
    21   11   12 1
    22   11   46 1
    23   11   47 1
    24   12   13 1
    25   12   48 1
    26   12   49 1
    27   13   18 1
    28   13   14 1
    29   13   75 1
    30   14   15 1
    31   14   50 1
    32   14   51 1
    33   15   16 1
    34   15   52 1
    35   15   53 1
    36   16   17 1
    37   17   18 1
    38   17   54 1
    39   17   55 1
    40   18   56 1
    41   18   57 1
    42   19   20 ar
    43   20   21 ar
    44   20   58 1
    45   21   22 ar
    46   21   37 1
    47   22   23 1
    48   23   24 1
    49   23   59 1
    50   24   29 ar
    51   24   25 ar
    52   25   26 ar
    53   25   60 1
    54   26   27 ar
    55   26   61 1
    56   27   28 ar
    57   27   30 1
    58   28   29 ar
    59   28   62 1
    60   29   63 1
    61   30   31 1
    62   31   36 1
    63   31   32 1
    64   31   64 1
    65   32   33 1
    66   32   65 1
    67   32   66 1
    68   33   34 1
    69   33   67 1
    70   33   68 1
    71   34   35 1
    72   34   69 1
    73   34   70 1
    74   35   36 1
    75   35   71 1
    76   35   72 1
    77   36   73 1
    78   36   74 1
    79   37   38 3
@<TRIPOS>MOLECULE
CHEMBL29714
   68    72     0     0     0
SMALL
USER_CHARGES

@<TRIPOS>ATOM
      1 C1         -3.6267    0.7418   -4.5769 C.3       1 <0>         0.0225
      2 O1         -3.6934   -0.6753   -4.4050 O.3       1 <0>        -0.2981
      3 C2         -4.0141   -1.1323   -3.1650 C.ar      1 <0>         0.1261
      4 C3         -4.2594   -0.2427   -2.1588 C.ar      1 <0>        -0.1568
      5 C4         -4.5905   -0.7110   -0.8789 C.ar      1 <0>        -0.0998
      6 C5         -4.6692   -2.1034   -0.6344 C.ar      1 <0>         0.1667
      7 C6         -4.4122   -2.9977   -1.6846 C.ar      1 <0>        -0.1781
      8 C7         -4.0954   -2.5122   -2.9331 C.ar      1 <0>         0.1593
      9 O2         -3.8529   -3.3799   -3.9499 O.3       1 <0>        -0.2924
     10 C8         -3.9514   -4.7738   -3.6507 C.3       1 <0>         0.0549
     11 C9         -3.6469   -5.5884   -4.9095 C.3       1 <0>        -0.1159
     12 C10        -3.7524   -7.0807   -4.5891 C.3       1 <0>         0.0586
     13 N1         -3.4600   -7.8629   -5.7977 N.3       1 <0>        -0.5363
     14 C11        -4.4951   -7.6576   -6.8213 C.3       1 <0>         0.0125
     15 C12        -4.1211   -8.4417   -8.0820 C.3       1 <0>         0.0624
     16 O3         -3.9568   -9.8224   -7.7474 O.3       1 <0>        -0.3853
     17 C13        -2.9558  -10.0588   -6.7536 C.3       1 <0>         0.0626
     18 C14        -3.3180   -9.2911   -5.4795 C.3       1 <0>         0.0174
     19 N2         -4.9861   -2.5579    0.5871 N.ar      1 <0>        -0.4632
     20 C15        -5.2314   -1.7491    1.5861 C.ar      1 <0>         0.1790
     21 C16        -5.1767   -0.3542    1.4342 C.ar      1 <0>        -0.0908
     22 C17        -4.8500    0.1879    0.1817 C.ar      1 <0>         0.2675
     23 N3         -4.7849    1.5532   -0.0090 N.pl3     1 <0>        -0.7064
     24 C18        -5.9267    2.2599   -0.4035 C.ar      1 <0>         0.1998
     25 C19        -7.0953    1.5751   -0.7117 C.ar      1 <0>        -0.1604
     26 C20        -8.2214    2.2718   -1.1012 C.ar      1 <0>        -0.0757
     27 C21        -8.1861    3.6584   -1.1846 C.ar      1 <0>        -0.1370
     28 C22        -7.0172    4.3433   -0.8758 C.ar      1 <0>        -0.0528
     29 C23        -5.8929    3.6465   -0.4813 C.ar      1 <0>        -0.1589
     30 S1         -9.6233    4.5480   -1.6824 S.3       1 <0>        -0.0162
     31 C24       -10.8705    3.3093   -1.8041 C.ar      1 <0>        -0.1399
     32 C25       -11.5933    2.9356   -0.6774 C.ar      1 <0>        -0.0665
     33 C26       -12.5702    1.9649   -0.7767 C.ar      1 <0>        -0.1285
     34 C27       -12.8298    1.3647   -1.9954 C.ar      1 <0>        -0.0891
     35 C28       -12.1122    1.7338   -3.1186 C.ar      1 <0>        -0.1289
     36 C29       -11.1377    2.7078   -3.0281 C.ar      1 <0>        -0.0661
     37 C30        -5.4516    0.5060    2.5455 C.1       1 <0>         0.2551
     38 N4         -5.6696    1.1884    3.4272 N.1       1 <0>        -0.3950
     39 H1         -3.3621    0.9705   -5.6093 H         1 <0>         0.1070
     40 H2         -4.5962    1.1821   -4.3442 H         1 <0>         0.0593
     41 H3         -2.8707    1.1537   -3.9084 H         1 <0>         0.0584
     42 H4         -4.1984    0.8189   -2.3478 H         1 <0>         0.1488
     43 H5         -4.4675   -4.0629   -1.5153 H         1 <0>         0.1559
     44 H6         -3.2347   -5.0294   -2.8703 H         1 <0>         0.0709
     45 H7         -4.9603   -5.0010   -3.3061 H         1 <0>         0.0683
     46 H8         -4.3636   -5.3328   -5.6899 H         1 <0>         0.0765
     47 H9         -2.6381   -5.3612   -5.2541 H         1 <0>         0.0865
     48 H10        -3.0357   -7.3364   -3.8087 H         1 <0>         0.0817
     49 H11        -4.7612   -7.3080   -4.2445 H         1 <0>         0.0404
     50 H12        -5.4549   -8.0109   -6.4444 H         1 <0>         0.0446
     51 H13        -4.5654   -6.5964   -7.0602 H         1 <0>         0.0904
     52 H14        -4.9136   -8.3386   -8.8232 H         1 <0>         0.0993
     53 H15        -3.1880   -8.0523   -8.4893 H         1 <0>         0.0611
     54 H16        -2.9056  -11.1253   -6.5341 H         1 <0>         0.0997
     55 H17        -1.9889   -9.7165   -7.1223 H         1 <0>         0.0611
     56 H18        -2.5292   -9.4223   -4.7389 H         1 <0>         0.0883
     57 H19        -4.2590   -9.6705   -5.0811 H         1 <0>         0.0448
     58 H20        -5.4824   -2.1645    2.5509 H         1 <0>         0.1732
     59 H21        -3.9478    2.0231    0.1304 H         1 <0>         0.4180
     60 H22        -7.1227    0.4974   -0.6469 H         1 <0>         0.1210
     61 H23        -9.1297    1.7393   -1.3415 H         1 <0>         0.1235
     62 H24        -6.9895    5.4209   -0.9410 H         1 <0>         0.1319
     63 H25        -4.9856    4.1791   -0.2371 H         1 <0>         0.1305
     64 H26       -11.3908    3.4035    0.2746 H         1 <0>         0.1315
     65 H27       -13.1321    1.6736    0.0985 H         1 <0>         0.1298
     66 H28       -13.5946    0.6057   -2.0701 H         1 <0>         0.1286
     67 H29       -12.3174    1.2628   -4.0686 H         1 <0>         0.1301
     68 H30       -10.5811    2.9990   -3.9066 H         1 <0>         0.1327
@<TRIPOS>BOND
     1    1    2 1
     2    1   39 1
     3    1   40 1
     4    1   41 1
     5    2    3 1
     6    3    8 ar
     7    3    4 ar
     8    4    5 ar
     9    4   42 1
    10    5   22 ar
    11    5    6 ar
    12    6    7 ar
    13    6   19 ar
    14    7    8 ar
    15    7   43 1
    16    8    9 1
    17    9   10 1
    18   10   11 1
    19   10   44 1
    20   10   45 1
    21   11   12 1
    22   11   46 1
    23   11   47 1
    24   12   13 1
    25   12   48 1
    26   12   49 1
    27   13   18 1
    28   13   14 1
    29   14   15 1
    30   14   50 1
    31   14   51 1
    32   15   16 1
    33   15   52 1
    34   15   53 1
    35   16   17 1
    36   17   18 1
    37   17   54 1
    38   17   55 1
    39   18   56 1
    40   18   57 1
    41   19   20 ar
    42   20   21 ar
    43   20   58 1
    44   21   22 ar
    45   21   37 1
    46   22   23 1
    47   23   24 1
    48   23   59 1
    49   24   29 ar
    50   24   25 ar
    51   25   26 ar
    52   25   60 1
    53   26   27 ar
    54   26   61 1
    55   27   28 ar
    56   27   30 1
    57   28   29 ar
    58   28   62 1
    59   29   63 1
    60   30   31 1
    61   31   36 ar
    62   31   32 ar
    63   32   33 ar
    64   32   64 1
    65   33   34 ar
    66   33   65 1
    67   34   35 ar
    68   34   66 1
    69   35   36 ar
    70   35   67 1
    71   36   68 1
    72   37   38 3
@<TRIPOS>MOLECULE
CHEMBL29714__1
   69    73     0     0     0
SMALL
USER_CHARGES

@<TRIPOS>ATOM
      1 C1          5.7694    0.8486   -0.8357 C.3       1 <0>         0.0213
      2 O1          5.6759   -0.5669   -1.0078 O.3       1 <0>        -0.3023
      3 C2          4.7694   -1.0200   -1.9145 C.ar      1 <0>         0.1228
      4 C3          4.0067   -0.1281   -2.6121 C.ar      1 <0>        -0.1480
      5 C4          3.0710   -0.5924   -3.5480 C.ar      1 <0>        -0.0965
      6 C5          2.9202   -1.9833   -3.7663 C.ar      1 <0>         0.1612
      7 C6          3.7153   -2.8801   -3.0366 C.ar      1 <0>        -0.1702
      8 C7          4.6307   -2.3983   -2.1284 C.ar      1 <0>         0.1489
      9 O2          5.4036   -3.2683   -1.4274 O.3       1 <0>        -0.2940
     10 C8          5.2154   -4.6602   -1.6902 C.3       1 <0>         0.0565
     11 C9          6.1661   -5.4778   -0.8135 C.3       1 <0>        -0.1505
     12 C10         5.9646   -6.9682   -1.0948 C.3       1 <0>        -0.0060
     13 N1          6.8774   -7.7532   -0.2530 N.4       1 <0>        -0.3843
     14 C11         8.2664   -7.4699   -0.6399 C.3       1 <0>        -0.0501
     15 C12         9.2154   -8.2887    0.2387 C.3       1 <0>         0.0361
     16 O3          8.9046   -9.6781    0.1010 O.3       1 <0>        -0.3563
     17 C13         7.5540  -10.0007    0.4438 C.3       1 <0>         0.0355
     18 C14         6.6019   -9.1850   -0.4344 C.3       1 <0>        -0.0434
     19 N2          2.0278   -2.4339   -4.6604 N.ar      1 <0>        -0.4660
     20 C15         1.2727   -1.6227   -5.3561 C.ar      1 <0>         0.1842
     21 C16         1.3552   -0.2291   -5.2049 C.ar      1 <0>        -0.0809
     22 C17         2.2681    0.3090   -4.2850 C.ar      1 <0>         0.2705
     23 N3          2.3795    1.6729   -4.1060 N.pl3     1 <0>        -0.7086
     24 C18         3.2807    2.4094   -4.8832 C.ar      1 <0>         0.1949
     25 C19         4.1423    1.7552   -5.7547 C.ar      1 <0>        -0.1610
     26 C20         5.0315    2.4814   -6.5210 C.ar      1 <0>        -0.0773
     27 C21         5.0645    3.8669   -6.4210 C.ar      1 <0>        -0.1341
     28 C22         4.2023    4.5211   -5.5496 C.ar      1 <0>        -0.0524
     29 C23         3.3097    3.7950   -4.7873 C.ar      1 <0>        -0.1558
     30 S1          6.1999    4.7940   -7.3987 S.3       1 <0>        -0.0109
     31 C24         6.9479    3.5875   -8.4424 C.ar      1 <0>        -0.1414
     32 C25         6.3392    3.2280   -9.6390 C.ar      1 <0>        -0.0658
     33 C26         6.9285    2.2825  -10.4547 C.ar      1 <0>        -0.1279
     34 C27         8.1230    1.6933  -10.0821 C.ar      1 <0>        -0.0887
     35 C28         8.7314    2.0482   -8.8919 C.ar      1 <0>        -0.1298
     36 C29         8.1509    2.9972   -8.0739 C.ar      1 <0>        -0.0663
     37 C30         0.5167    0.6338   -5.9813 C.1       1 <0>         0.2472
     38 N4         -0.1486    1.3184   -6.5972 N.1       1 <0>        -0.3824
     39 H1          6.0455    1.3123   -1.7827 H         1 <0>         0.0618
     40 H2          4.8062    1.2391   -0.5071 H         1 <0>         0.0607
     41 H3          6.5277    1.0742   -0.0859 H         1 <0>         0.1088
     42 H4          4.1234    0.9323   -2.4436 H         1 <0>         0.1518
     43 H5          3.6129   -3.9441   -3.1904 H         1 <0>         0.1532
     44 H6          4.1854   -4.9365   -1.4649 H         1 <0>         0.0789
     45 H7          5.4247   -4.8633   -2.7405 H         1 <0>         0.0785
     46 H8          7.1962   -5.2016   -1.0387 H         1 <0>         0.1004
     47 H9          5.9569   -5.2748    0.2368 H         1 <0>         0.1014
     48 H10         4.9346   -7.2444   -0.8695 H         1 <0>         0.1384
     49 H11         6.1739   -7.1712   -2.1451 H         1 <0>         0.1362
     50 H12         8.4149   -7.7399   -1.6854 H         1 <0>         0.1408
     51 H13         8.4719   -6.4079   -0.5055 H         1 <0>         0.1447
     52 H14        10.2444   -8.1131   -0.0749 H         1 <0>         0.1427
     53 H15         9.0956   -7.9905    1.2803 H         1 <0>         0.0820
     54 H16         7.3806  -11.0641    0.2786 H         1 <0>         0.1430
     55 H17         7.3774   -9.7610    1.4923 H         1 <0>         0.0819
     56 H18         5.5717   -9.3963   -0.1476 H         1 <0>         0.1442
     57 H19         6.7510   -9.4544   -1.4801 H         1 <0>         0.1403
     58 H20         0.5690   -2.0350   -6.0640 H         1 <0>         0.1763
     59 H21         1.8332    2.1211   -3.4415 H         1 <0>         0.4192
     60 H22         4.1167    0.6783   -5.8324 H         1 <0>         0.1189
     61 H23         5.7019    1.9727   -7.1979 H         1 <0>         0.1239
     62 H24         4.2281    5.5980   -5.4715 H         1 <0>         0.1337
     63 H25         2.6365    4.3038   -4.1133 H         1 <0>         0.1316
     64 H26         5.4062    3.6875   -9.9304 H         1 <0>         0.1322
     65 H27         6.4558    2.0025  -11.3845 H         1 <0>         0.1307
     66 H28         8.5817    0.9541  -10.7221 H         1 <0>         0.1288
     67 H29         9.6640    1.5858   -8.6040 H         1 <0>         0.1297
     68 H30         8.6290    3.2774   -7.1469 H         1 <0>         0.1324
     69 H31         6.7402   -7.5042    0.7151 H         1 <0>         0.4247
@<TRIPOS>BOND
     1    1    2 1
     2    1   39 1
     3    1   40 1
     4    1   41 1
     5    2    3 1
     6    3    8 ar
     7    3    4 ar
     8    4    5 ar
     9    4   42 1
    10    5   22 ar
    11    5    6 ar
    12    6    7 ar
    13    6   19 ar
    14    7    8 ar
    15    7   43 1
    16    8    9 1
    17    9   10 1
    18   10   11 1
    19   10   44 1
    20   10   45 1
    21   11   12 1
    22   11   46 1
    23   11   47 1
    24   12   13 1
    25   12   48 1
    26   12   49 1
    27   13   18 1
    28   13   14 1
    29   13   69 1
    30   14   15 1
    31   14   50 1
    32   14   51 1
    33   15   16 1
    34   15   52 1
    35   15   53 1
    36   16   17 1
    37   17   18 1
    38   17   54 1
    39   17   55 1
    40   18   56 1
    41   18   57 1
    42   19   20 ar
    43   20   21 ar
    44   20   58 1
    45   21   22 ar
    46   21   37 1
    47   22   23 1
    48   23   24 1
    49   23   59 1
    50   24   29 ar
    51   24   25 ar
    52   25   26 ar
    53   25   60 1
    54   26   27 ar
    55   26   61 1
    56   27   28 ar
    57   27   30 1
    58   28   29 ar
    59   28   62 1
    60   29   63 1
    61   30   31 1
    62   31   36 ar
    63   31   32 ar
    64   32   33 ar
    65   32   64 1
    66   33   34 ar
    67   33   65 1
    68   34   35 ar
    69   34   66 1
    70   35   36 ar
    71   35   67 1
    72   36   68 1
    73   37   38 3
@<TRIPOS>MOLECULE
CHEMBL377592
   52    54     0     0     0
SMALL
NO_CHARGES

@<TRIPOS>ATOM
      1 C1         -0.0173    1.4248    0.0099 C.3       1 <0>         0.0368
      2 O1          0.0021   -0.0041    0.0020 O.3       1 <0>        -0.3567
      3 C2         -1.1904   -0.6323    0.0100 C.2       1 <0>         0.5032
      4 O2         -2.2185    0.0157    0.0233 O.2       1 <0>        -0.5312
      5 C3         -1.2475   -2.1039    0.0027 C.ar      1 <0>        -0.2120
      6 C4         -0.0634   -2.8503   -0.0068 C.ar      1 <0>        -0.0441
      7 C5         -0.1164   -4.2137   -0.0131 C.ar      1 <0>        -0.1423
      8 C6         -1.3547   -4.8659   -0.0102 C.ar      1 <0>         0.1026
      9 C7         -2.5388   -4.1197   -0.0012 C.ar      1 <0>        -0.2054
     10 C8         -2.4859   -2.7563    0.0110 C.ar      1 <0>        -0.0174
     11 N1         -1.4077   -6.2297   -0.0165 N.2       1 <0>        -0.4397
     12 C9         -2.2298   -6.8563    0.7859 C.2       1 <0>        -0.1300
     13 C10        -2.4418   -8.3473    0.9345 C.3       1 <0>        -0.0466
     14 C11        -3.4815   -8.6293    1.9716 C.2       1 <0>         0.5149
     15 N2         -4.0138   -7.5517    2.5561 N.am      1 <0>        -0.7261
     16 S1         -3.2944   -6.2012    1.8996 S.3       1 <0>         0.2338
     17 O3         -3.8189   -9.7584    2.2621 O.2       1 <0>        -0.5052
     18 C12        -2.8884   -8.9201   -0.3859 C.cat     1 <0>         0.4644
     19 N3         -3.4861   -8.1652   -1.2493 N.pl3     1 <0>        -0.7288
     20 N4         -2.6612  -10.2406   -0.6717 N.pl3     1 <0>        -0.6674
     21 C13        -3.0953  -10.7974   -1.9553 C.3       1 <0>         0.0877
     22 C14        -2.7234  -12.2801   -2.0200 C.3       1 <0>        -0.0964
     23 C15        -3.5106  -13.0501   -0.9577 C.3       1 <0>        -0.1192
     24 C16        -3.1387  -14.5328   -1.0224 C.3       1 <0>        -0.1207
     25 C17        -3.4788  -15.0840   -2.4085 C.3       1 <0>        -0.1232
     26 C18        -2.6916  -14.3140   -3.4708 C.3       1 <0>        -0.1198
     27 C19        -3.0635  -12.8313   -3.4061 C.3       1 <0>        -0.1121
     28 H1          1.0053    1.8021    0.0021 H         1 <0>         0.0975
     29 H2         -0.5445    1.7859   -0.8732 H         1 <0>         0.0565
     30 H3         -0.5275    1.7763    0.9067 H         1 <0>         0.0569
     31 H4          0.8922   -2.3470   -0.0094 H         1 <0>         0.1241
     32 H5          0.7972   -4.7895   -0.0208 H         1 <0>         0.1177
     33 H6         -3.4943   -4.6231    0.0007 H         1 <0>         0.1184
     34 H7         -3.3996   -2.1805    0.0228 H         1 <0>         0.1217
     35 H8         -1.5031   -8.8164    1.2294 H         1 <0>         0.1630
     36 H9         -3.7735   -8.5339   -2.0992 H         1 <0>         0.4184
     37 H10        -2.2129  -10.8068   -0.0242 H         1 <0>         0.4318
     38 H11        -4.1756  -10.6893   -2.0516 H         1 <0>         0.0840
     39 H12        -2.6029  -10.2636   -2.7681 H         1 <0>         0.0853
     40 H13        -1.6553  -12.3952   -1.8352 H         1 <0>         0.0860
     41 H14        -3.2683  -12.6575    0.0298 H         1 <0>         0.0651
     42 H15        -4.5786  -12.9350   -1.1425 H         1 <0>         0.0675
     43 H16        -2.0707  -14.6479   -0.8376 H         1 <0>         0.0640
     44 H17        -3.6995  -15.0814   -0.2656 H         1 <0>         0.0664
     45 H18        -3.2139  -16.1403   -2.4546 H         1 <0>         0.0648
     46 H19        -4.5468  -14.9689   -2.5933 H         1 <0>         0.0628
     47 H20        -1.6236  -14.4291   -3.2860 H         1 <0>         0.0644
     48 H21        -2.9339  -14.7066   -4.4583 H         1 <0>         0.0674
     49 H22        -4.1315  -12.7162   -3.5909 H         1 <0>         0.0681
     50 H23        -2.5027  -12.2827   -4.1629 H         1 <0>         0.0681
     51 H24        -3.6469   -7.2303   -1.0469 H         1 <0>         0.4400
     52 H25        -4.6970   -7.5557    3.2448 H         1 <0>         0.4408
@<TRIPOS>BOND
     1    1    2 1
     2    1   28 1
     3    1   29 1
     4    1   30 1
     5    2    3 1
     6    3    4 2
     7    3    5 1
     8    5   10 ar
     9    5    6 ar
    10    6    7 ar
    11    6   31 1
    12    7    8 ar
    13    7   32 1
    14    8    9 ar
    15    8   11 1
    16    9   10 ar
    17    9   33 1
    18   10   34 1
    19   11   12 2
    20   12   13 1
    21   12   16 1
    22   13   14 1
    23   13   18 1
    24   13   35 1
    25   14   15 am
    26   14   17 2
    27   15   16 1
    28   15   52 1
    29   18   19 2
    30   18   20 1
    31   19   36 1
    32   19   51 1
    33   20   21 1
    34   20   37 1
    35   21   22 1
    36   21   38 1
    37   21   39 1
    38   22   27 1
    39   22   23 1
    40   22   40 1
    41   23   24 1
    42   23   41 1
    43   23   42 1
    44   24   25 1
    45   24   43 1
    46   24   44 1
    47   25   26 1
    48   25   45 1
    49   25   46 1
    50   26   27 1
    51   26   47 1
    52   26   48 1
    53   27   49 1
    54   27   50 1
@<TRIPOS>MOLECULE
CHEMBL377592__1
   52    54     0     0     0
SMALL
NO_CHARGES

@<TRIPOS>ATOM
      1 C1         -3.1115    1.2980   -0.9941 C.3       1 <0>         0.0369
      2 O1         -3.0685   -0.1236   -0.8550 O.3       1 <0>        -0.3580
      3 C2         -1.8654   -0.6779   -0.6060 C.2       1 <0>         0.5007
      4 O2         -0.8799    0.0267   -0.5097 O.2       1 <0>        -0.5302
      5 C3         -1.7451   -2.1375   -0.4507 C.ar      1 <0>        -0.2146
      6 C4         -2.8792   -2.9496   -0.5673 C.ar      1 <0>        -0.0378
      7 C5         -2.7676   -4.3019   -0.4238 C.ar      1 <0>        -0.1951
      8 C6         -1.5192   -4.8770   -0.1600 C.ar      1 <0>         0.0954
      9 C7         -0.3852   -4.0650   -0.0429 C.ar      1 <0>        -0.1560
     10 C8         -0.4957   -2.7133   -0.1921 C.ar      1 <0>        -0.0322
     11 N1         -1.4077   -6.2297   -0.0165 N.2       1 <0>        -0.4245
     12 C9         -2.1567   -6.8595    0.8523 C.2       1 <0>        -0.0894
     13 C10        -3.1111   -6.2716    1.8689 C.3       1 <0>        -0.0930
     14 C11        -3.7660   -7.3561    2.6633 C.2       1 <0>         0.5010
     15 N2         -3.4014   -8.6010    2.3415 N.am      1 <0>        -0.7327
     16 S1         -2.2944   -8.5094    1.1011 S.3       1 <0>         0.3152
     17 O3         -4.5722   -7.1220    3.5397 O.2       1 <0>        -0.5065
     18 C12        -2.3489   -5.3642    2.7999 C.cat     1 <0>         0.4576
     19 N3         -1.0818   -5.5447    2.9852 N.pl3     1 <0>        -0.7300
     20 N4         -2.9984   -4.3481    3.4500 N.pl3     1 <0>        -0.6629
     21 C13        -2.2574   -3.4660    4.3550 C.3       1 <0>         0.0904
     22 C14        -3.2103   -2.4249    4.9460 C.3       1 <0>        -0.0961
     23 C15        -4.2496   -3.1250    5.8239 C.3       1 <0>        -0.1181
     24 C16        -5.2024   -2.0840    6.4149 C.3       1 <0>        -0.1204
     25 C17        -4.4077   -1.0876    7.2614 C.3       1 <0>        -0.1222
     26 C18        -3.3685   -0.3875    6.3834 C.3       1 <0>        -0.1197
     27 C19        -2.4156   -1.4285    5.7925 C.3       1 <0>        -0.1115
     28 H1         -4.1362    1.6129   -1.1915 H         1 <0>         0.0977
     29 H2         -2.7591    1.7640   -0.0739 H         1 <0>         0.0561
     30 H3         -2.4720    1.6014   -1.8230 H         1 <0>         0.0577
     31 H4         -3.8426   -2.5058   -0.7705 H         1 <0>         0.1196
     32 H5         -3.6427   -4.9285   -0.5134 H         1 <0>         0.1081
     33 H6          0.5780   -4.5089    0.1610 H         1 <0>         0.1185
     34 H7          0.3801   -2.0872   -0.1065 H         1 <0>         0.1222
     35 H8         -3.8761   -5.6929    1.3513 H         1 <0>         0.1400
     36 H9         -0.5912   -4.9606    3.5844 H         1 <0>         0.4180
     37 H10        -3.9488   -4.2127    3.3110 H         1 <0>         0.4299
     38 H11        -1.8197   -4.0562    5.1601 H         1 <0>         0.0805
     39 H12        -1.4651   -2.9610    3.8024 H         1 <0>         0.0875
     40 H13        -3.7149   -1.8944    4.1385 H         1 <0>         0.0866
     41 H14        -4.8157   -3.8349    5.2209 H         1 <0>         0.0633
     42 H15        -3.7450   -3.6555    6.6314 H         1 <0>         0.0662
     43 H16        -5.7070   -1.5535    5.6074 H         1 <0>         0.0641
     44 H17        -5.9428   -2.5827    7.0403 H         1 <0>         0.0654
     45 H18        -5.0866   -0.3459    7.6824 H         1 <0>         0.0642
     46 H19        -3.9031   -1.6181    8.0688 H         1 <0>         0.0623
     47 H20        -3.8731    0.1430    5.5760 H         1 <0>         0.0645
     48 H21        -2.8023    0.3224    6.9865 H         1 <0>         0.0669
     49 H22        -1.9110   -1.9591    6.6000 H         1 <0>         0.0672
     50 H23        -1.6752   -0.9298    5.1670 H         1 <0>         0.0688
     51 H24        -0.6220   -6.2641    2.5249 H         1 <0>         0.4405
     52 H25        -3.7273   -9.4154    2.7555 H         1 <0>         0.4376
@<TRIPOS>BOND
     1    1    2 1
     2    1   28 1
     3    1   29 1
     4    1   30 1
     5    2    3 1
     6    3    4 2
     7    3    5 1
     8    5   10 ar
     9    5    6 ar
    10    6    7 ar
    11    6   31 1
    12    7    8 ar
    13    7   32 1
    14    8    9 ar
    15    8   11 1
    16    9   10 ar
    17    9   33 1
    18   10   34 1
    19   11   12 2
    20   12   13 1
    21   12   16 1
    22   13   14 1
    23   13   18 1
    24   13   35 1
    25   14   15 am
    26   14   17 2
    27   15   16 1
    28   15   52 1
    29   18   19 2
    30   18   20 1
    31   19   36 1
    32   19   51 1
    33   20   21 1
    34   20   37 1
    35   21   22 1
    36   21   38 1
    37   21   39 1
    38   22   27 1
    39   22   23 1
    40   22   40 1
    41   23   24 1
    42   23   41 1
    43   23   42 1
    44   24   25 1
    45   24   43 1
    46   24   44 1
    47   25   26 1
    48   25   45 1
    49   25   46 1
    50   26   27 1
    51   26   47 1
    52   26   48 1
    53   27   49 1
    54   27   50 1
@<TRIPOS>MOLECULE
CHEMBL37493
   45    47     0     0     0
SMALL
USER_CHARGES

@<TRIPOS>ATOM
      1 C1          1.0397   -0.3000   -3.1720 C.ar      1 <0>        -0.0630
      2 C2          2.2342    0.3969   -3.1800 C.ar      1 <0>        -0.1609
      3 C3          3.1372    0.2410   -2.1453 C.ar      1 <0>        -0.0732
      4 C4          2.8463   -0.6163   -1.0942 C.ar      1 <0>        -0.1925
      5 C5          1.6411   -1.3190   -1.0858 C.ar      1 <0>         0.2486
      6 C6          0.7413   -1.1566   -2.1287 C.ar      1 <0>        -0.1833
      7 N1          1.3414   -2.1853   -0.0290 N.pl3     1 <0>        -0.8698
      8 S1          3.9957   -0.8176    0.2260 S.3       1 <0>         0.0177
      9 C7          5.2449    0.3787   -0.1102 C.2       1 <0>         0.2167
     10 C8          6.5288   -0.0325   -0.4390 C.2       1 <0>        -0.1222
     11 C9          6.8385   -1.4290   -0.5049 C.1       1 <0>         0.2692
     12 N2          7.0842   -2.5369   -0.5572 N.1       1 <0>        -0.4224
     13 C10         7.5782    0.9725   -0.7215 C.ar      1 <0>        -0.0177
     14 C11         7.4614    1.8157   -1.8274 C.ar      1 <0>        -0.1040
     15 C12         8.4428    2.7501   -2.0853 C.ar      1 <0>        -0.1100
     16 C13         9.5416    2.8522   -1.2503 C.ar      1 <0>        -0.1037
     17 C14         9.6635    2.0191   -0.1526 C.ar      1 <0>        -0.1110
     18 C15         8.6854    1.0847    0.1200 C.ar      1 <0>        -0.0865
     19 C16        10.8637    2.1368    0.7511 C.3       1 <0>         0.1887
     20 C17        10.6169    3.2134    1.7763 C.ar      1 <0>        -0.0669
     21 C18        10.7753    4.5521    1.4519 C.ar      1 <0>        -0.1643
     22 C19        10.5401    5.5116    2.4183 C.ar      1 <0>         0.1043
     23 N3         10.1698    5.1660    3.6359 N.ar      1 <0>        -0.4833
     24 C20        10.0093    3.9031    3.9797 C.ar      1 <0>         0.1040
     25 C21        10.2205    2.8891    3.0647 C.ar      1 <0>        -0.1610
     26 O1         12.0142    2.4742   -0.0265 O.3       1 <0>        -0.5410
     27 N4          4.9481    1.7170   -0.0470 N.pl3     1 <0>        -0.8253
     28 H1          0.3359   -0.1713   -3.9810 H         1 <0>         0.1277
     29 H2          2.4623    1.0648   -3.9975 H         1 <0>         0.1252
     30 H3          4.0693    0.7864   -2.1552 H         1 <0>         0.1239
     31 H4         -0.1926   -1.6989   -2.1255 H         1 <0>         0.1291
     32 H5          1.9719   -2.2981    0.6995 H         1 <0>         0.3994
     33 H6          0.5030   -2.6732   -0.0247 H         1 <0>         0.4042
     34 H7          6.6047    1.7365   -2.4802 H         1 <0>         0.1268
     35 H8          8.3536    3.4032   -2.9408 H         1 <0>         0.1297
     36 H9         10.3075    3.5852   -1.4566 H         1 <0>         0.1213
     37 H10         8.7793    0.4381    0.9799 H         1 <0>         0.1268
     38 H11        11.0328    1.1859    1.2563 H         1 <0>         0.1220
     39 H12        11.0791    4.8413    0.4567 H         1 <0>         0.1314
     40 H13        10.6612    6.5565    2.1737 H         1 <0>         0.1578
     41 H14         9.7054    3.6586    4.9868 H         1 <0>         0.1585
     42 H15        10.0826    1.8568    3.3509 H         1 <0>         0.1372
     43 H16        11.9340    3.3108   -0.5048 H         1 <0>         0.3747
     44 H17         4.0347    2.0044    0.1081 H         1 <0>         0.4102
     45 H18         5.6516    2.3756   -0.1575 H         1 <0>         0.4067
@<TRIPOS>BOND
     1    1    6 ar
     2    1    2 ar
     3    1   28 1
     4    2    3 ar
     5    2   29 1
     6    3    4 ar
     7    3   30 1
     8    4    5 ar
     9    4    8 1
    10    5    6 ar
    11    5    7 1
    12    6   31 1
    13    7   32 1
    14    7   33 1
    15    8    9 1
    16    9   10 2
    17    9   27 1
    18   10   11 1
    19   10   13 1
    20   11   12 3
    21   13   18 ar
    22   13   14 ar
    23   14   15 ar
    24   14   34 1
    25   15   16 ar
    26   15   35 1
    27   16   17 ar
    28   16   36 1
    29   17   18 ar
    30   17   19 1
    31   18   37 1
    32   19   20 1
    33   19   26 1
    34   19   38 1
    35   20   25 ar
    36   20   21 ar
    37   21   22 ar
    38   21   39 1
    39   22   23 ar
    40   22   40 1
    41   23   24 ar
    42   24   25 ar
    43   24   41 1
    44   25   42 1
    45   26   43 1
    46   27   44 1
    47   27   45 1
@<TRIPOS>MOLECULE
CHEMBL37493__1
   45    47     0     0     0
SMALL
USER_CHARGES

@<TRIPOS>ATOM
      1 C1          1.7816   -0.0928   -4.0219 C.ar      1 <0>        -0.0631
      2 C2          2.9467    0.5957   -3.7371 C.ar      1 <0>        -0.1613
      3 C3          3.6088    0.3781   -2.5435 C.ar      1 <0>        -0.0717
      4 C4          3.1047   -0.5329   -1.6268 C.ar      1 <0>        -0.1940
      5 C5          1.9291   -1.2271   -1.9139 C.ar      1 <0>         0.2488
      6 C6          1.2718   -1.0025   -3.1143 C.ar      1 <0>        -0.1832
      7 N1          1.4151   -2.1472   -0.9939 N.pl3     1 <0>        -0.8701
      8 S1          3.9469   -0.8128   -0.1046 S.3       1 <0>         0.0406
      9 C7          5.2449    0.3787   -0.1102 C.2       1 <0>         0.2109
     10 C8          6.5673   -0.0362   -0.1786 C.2       1 <0>        -0.1216
     11 C9          7.6222    0.9321   -0.1832 C.1       1 <0>         0.2611
     12 N2          8.4591    1.7003   -0.1868 N.1       1 <0>        -0.4286
     13 C10         6.8874   -1.4798   -0.2467 C.ar      1 <0>        -0.0072
     14 C11         6.5795   -2.3173    0.8263 C.ar      1 <0>        -0.0865
     15 C12         6.8805   -3.6616    0.7566 C.ar      1 <0>        -0.1113
     16 C13         7.4868   -4.1802   -0.3740 C.ar      1 <0>        -0.1029
     17 C14         7.7951   -3.3553   -1.4409 C.ar      1 <0>        -0.1137
     18 C15         7.4931   -2.0100   -1.3863 C.ar      1 <0>        -0.0848
     19 C16         8.4559   -3.9284   -2.6681 C.3       1 <0>         0.1896
     20 C17         7.4035   -4.4877   -3.5904 C.ar      1 <0>        -0.0648
     21 C18         6.8429   -5.7337   -3.3549 C.ar      1 <0>        -0.1635
     22 C19         5.8804   -6.2141   -4.2225 C.ar      1 <0>         0.1038
     23 N3          5.4951   -5.5023   -5.2636 N.ar      1 <0>        -0.4834
     24 C20         6.0063   -4.3138   -5.5185 C.ar      1 <0>         0.1045
     25 C21         6.9687   -3.7660   -4.6916 C.ar      1 <0>        -0.1600
     26 O1          9.3541   -4.9708   -2.2826 O.3       1 <0>        -0.5422
     27 N4          4.9481    1.7170   -0.0470 N.pl3     1 <0>        -0.8320
     28 H1          1.2660    0.0840   -4.9543 H         1 <0>         0.1268
     29 H2          3.3405    1.3053   -4.4497 H         1 <0>         0.1235
     30 H3          4.5188    0.9170   -2.3248 H         1 <0>         0.1214
     31 H4          0.3615   -1.5381   -3.3400 H         1 <0>         0.1283
     32 H5          1.8762   -2.3034   -0.1549 H         1 <0>         0.3987
     33 H6          0.5976   -2.6291   -1.1951 H         1 <0>         0.4038
     34 H7          6.1069   -1.9136    1.7096 H         1 <0>         0.1248
     35 H8          6.6427   -4.3108    1.5864 H         1 <0>         0.1282
     36 H9          7.7208   -5.2334   -0.4236 H         1 <0>         0.1191
     37 H10         7.7298   -1.3679   -2.2218 H         1 <0>         0.1223
     38 H11         9.0098   -3.1432   -3.1826 H         1 <0>         0.1200
     39 H12         7.1548   -6.3217   -2.5043 H         1 <0>         0.1310
     40 H13         5.4388   -7.1838   -4.0460 H         1 <0>         0.1568
     41 H14         5.6660   -3.7603   -6.3812 H         1 <0>         0.1569
     42 H15         7.3799   -2.7900   -4.9028 H         1 <0>         0.1356
     43 H16         8.9288   -5.7048   -1.8184 H         1 <0>         0.3746
     44 H17         4.0347    2.0044    0.1081 H         1 <0>         0.4117
     45 H18         5.6516    2.3756   -0.1575 H         1 <0>         0.4031
@<TRIPOS>BOND
     1    1    6 ar
     2    1    2 ar
     3    1   28 1
     4    2    3 ar
     5    2   29 1
     6    3    4 ar
     7    3   30 1
     8    4    5 ar
     9    4    8 1
    10    5    6 ar
    11    5    7 1
    12    6   31 1
    13    7   32 1
    14    7   33 1
    15    8    9 1
    16    9   10 2
    17    9   27 1
    18   10   11 1
    19   10   13 1
    20   11   12 3
    21   13   18 ar
    22   13   14 ar
    23   14   15 ar
    24   14   34 1
    25   15   16 ar
    26   15   35 1
    27   16   17 ar
    28   16   36 1
    29   17   18 ar
    30   17   19 1
    31   18   37 1
    32   19   20 1
    33   19   26 1
    34   19   38 1
    35   20   25 ar
    36   20   21 ar
    37   21   22 ar
    38   21   39 1
    39   22   23 ar
    40   22   40 1
    41   23   24 ar
    42   24   25 ar
    43   24   41 1
    44   25   42 1
    45   26   43 1
    46   27   44 1
    47   27   45 1
@<TRIPOS>MOLECULE
CHEMBL37493__2
   45    47     0     0     0
SMALL
USER_CHARGES

@<TRIPOS>ATOM
      1 C1          1.0397   -0.3000   -3.1720 C.ar      1 <0>        -0.0630
      2 C2          2.2342    0.3969   -3.1800 C.ar      1 <0>        -0.1609
      3 C3          3.1372    0.2410   -2.1453 C.ar      1 <0>        -0.0732
      4 C4          2.8463   -0.6163   -1.0942 C.ar      1 <0>        -0.1925
      5 C5          1.6411   -1.3190   -1.0858 C.ar      1 <0>         0.2485
      6 C6          0.7413   -1.1566   -2.1287 C.ar      1 <0>        -0.1833
      7 N1          1.3414   -2.1853   -0.0290 N.pl3     1 <0>        -0.8698
      8 S1          3.9957   -0.8176    0.2260 S.3       1 <0>         0.0176
      9 C7          5.2449    0.3787   -0.1102 C.2       1 <0>         0.2172
     10 C8          6.5288   -0.0325   -0.4390 C.2       1 <0>        -0.1230
     11 C9          6.8385   -1.4290   -0.5049 C.1       1 <0>         0.2693
     12 N2          7.0842   -2.5369   -0.5572 N.1       1 <0>        -0.4229
     13 C10         7.5782    0.9725   -0.7215 C.ar      1 <0>        -0.0179
     14 C11         7.4614    1.8157   -1.8274 C.ar      1 <0>        -0.1037
     15 C12         8.4428    2.7501   -2.0853 C.ar      1 <0>        -0.1103
     16 C13         9.5416    2.8522   -1.2503 C.ar      1 <0>        -0.1032
     17 C14         9.6635    2.0191   -0.1526 C.ar      1 <0>        -0.1111
     18 C15         8.6854    1.0847    0.1200 C.ar      1 <0>        -0.0860
     19 C16        10.8637    2.1368    0.7511 C.3       1 <0>         0.1896
     20 C17        12.0350    1.4236    0.1261 C.ar      1 <0>        -0.0683
     21 C18        12.8472    2.0659   -0.7959 C.ar      1 <0>        -0.1653
     22 C19        13.9123    1.3799   -1.3482 C.ar      1 <0>         0.1045
     23 N3         14.1590    0.1300   -1.0078 N.ar      1 <0>        -0.4833
     24 C20        13.4080   -0.5120   -0.1345 C.ar      1 <0>         0.1048
     25 C21        12.3294    0.1115    0.4637 C.ar      1 <0>        -0.1610
     26 O1         11.1885    3.5163    0.9343 O.3       1 <0>        -0.5417
     27 N4          4.9481    1.7170   -0.0470 N.pl3     1 <0>        -0.8250
     28 H1          0.3359   -0.1713   -3.9810 H         1 <0>         0.1277
     29 H2          2.4623    1.0648   -3.9975 H         1 <0>         0.1252
     30 H3          4.0693    0.7864   -2.1552 H         1 <0>         0.1239
     31 H4         -0.1926   -1.6989   -2.1255 H         1 <0>         0.1291
     32 H5          1.9719   -2.2981    0.6995 H         1 <0>         0.3994
     33 H6          0.5030   -2.6732   -0.0247 H         1 <0>         0.4042
     34 H7          6.6047    1.7365   -2.4802 H         1 <0>         0.1268
     35 H8          8.3536    3.4032   -2.9408 H         1 <0>         0.1296
     36 H9         10.3075    3.5852   -1.4566 H         1 <0>         0.1209
     37 H10         8.7793    0.4381    0.9799 H         1 <0>         0.1271
     38 H11        10.6369    1.6855    1.7170 H         1 <0>         0.1222
     39 H12        12.6498    3.0892   -1.0793 H         1 <0>         0.1317
     40 H13        14.5497    1.8731   -2.0671 H         1 <0>         0.1581
     41 H14        13.6409   -1.5356    0.1192 H         1 <0>         0.1586
     42 H15        11.7210   -0.4180    1.1820 H         1 <0>         0.1367
     43 H16        11.4019    3.9824    0.1144 H         1 <0>         0.3748
     44 H17         4.0347    2.0044    0.1081 H         1 <0>         0.4103
     45 H18         5.6516    2.3756   -0.1575 H         1 <0>         0.4072
@<TRIPOS>BOND
     1    1    6 ar
     2    1    2 ar
     3    1   28 1
     4    2    3 ar
     5    2   29 1
     6    3    4 ar
     7    3   30 1
     8    4    5 ar
     9    4    8 1
    10    5    6 ar
    11    5    7 1
    12    6   31 1
    13    7   32 1
    14    7   33 1
    15    8    9 1
    16    9   10 2
    17    9   27 1
    18   10   11 1
    19   10   13 1
    20   11   12 3
    21   13   18 ar
    22   13   14 ar
    23   14   15 ar
    24   14   34 1
    25   15   16 ar
    26   15   35 1
    27   16   17 ar
    28   16   36 1
    29   17   18 ar
    30   17   19 1
    31   18   37 1
    32   19   20 1
    33   19   26 1
    34   19   38 1
    35   20   25 ar
    36   20   21 ar
    37   21   22 ar
    38   21   39 1
    39   22   23 ar
    40   22   40 1
    41   23   24 ar
    42   24   25 ar
    43   24   41 1
    44   25   42 1
    45   26   43 1
    46   27   44 1
    47   27   45 1
@<TRIPOS>MOLECULE
CHEMBL37493__3
   45    47     0     0     0
SMALL
USER_CHARGES

@<TRIPOS>ATOM
      1 C1          1.7816   -0.0928   -4.0219 C.ar      1 <0>        -0.0634
      2 C2          2.9467    0.5957   -3.7371 C.ar      1 <0>        -0.1614
      3 C3          3.6088    0.3781   -2.5435 C.ar      1 <0>        -0.0717
      4 C4          3.1047   -0.5329   -1.6268 C.ar      1 <0>        -0.1942
      5 C5          1.9291   -1.2271   -1.9139 C.ar      1 <0>         0.2488
      6 C6          1.2718   -1.0025   -3.1143 C.ar      1 <0>        -0.1836
      7 N1          1.4151   -2.1472   -0.9939 N.pl3     1 <0>        -0.8700
      8 S1          3.9469   -0.8128   -0.1046 S.3       1 <0>         0.0416
      9 C7          5.2449    0.3787   -0.1102 C.2       1 <0>         0.2112
     10 C8          6.5673   -0.0362   -0.1786 C.2       1 <0>        -0.1222
     11 C9          7.6222    0.9321   -0.1832 C.1       1 <0>         0.2611
     12 N2          8.4591    1.7003   -0.1868 N.1       1 <0>        -0.4290
     13 C10         6.8874   -1.4798   -0.2467 C.ar      1 <0>        -0.0074
     14 C11         6.5795   -2.3173    0.8263 C.ar      1 <0>        -0.0861
     15 C12         6.8805   -3.6616    0.7566 C.ar      1 <0>        -0.1116
     16 C13         7.4868   -4.1802   -0.3740 C.ar      1 <0>        -0.1024
     17 C14         7.7951   -3.3553   -1.4409 C.ar      1 <0>        -0.1137
     18 C15         7.4931   -2.0100   -1.3863 C.ar      1 <0>        -0.0842
     19 C16         8.4559   -3.9284   -2.6681 C.3       1 <0>         0.1904
     20 C17         9.9325   -4.0902   -2.4143 C.ar      1 <0>        -0.0664
     21 C18        10.4256   -5.2281   -1.7944 C.ar      1 <0>        -0.1649
     22 C19        11.7859   -5.3414   -1.5782 C.ar      1 <0>         0.1042
     23 N3         12.6107   -4.3834   -1.9535 N.ar      1 <0>        -0.4842
     24 C20        12.1772   -3.2877   -2.5456 C.ar      1 <0>         0.1038
     25 C21        10.8309   -3.1072   -2.8004 C.ar      1 <0>        -0.1617
     26 O1          7.8816   -5.2022   -2.9674 O.3       1 <0>        -0.5417
     27 N4          4.9481    1.7170   -0.0470 N.pl3     1 <0>        -0.8319
     28 H1          1.2660    0.0840   -4.9543 H         1 <0>         0.1268
     29 H2          3.3405    1.3053   -4.4497 H         1 <0>         0.1236
     30 H3          4.5188    0.9170   -2.3248 H         1 <0>         0.1215
     31 H4          0.3615   -1.5381   -3.3400 H         1 <0>         0.1286
     32 H5          1.8762   -2.3034   -0.1549 H         1 <0>         0.3989
     33 H6          0.5976   -2.6291   -1.1951 H         1 <0>         0.4039
     34 H7          6.1069   -1.9136    1.7096 H         1 <0>         0.1248
     35 H8          6.6427   -4.3108    1.5864 H         1 <0>         0.1281
     36 H9          7.7208   -5.2334   -0.4236 H         1 <0>         0.1187
     37 H10         7.7298   -1.3679   -2.2218 H         1 <0>         0.1227
     38 H11         8.3038   -3.2542   -3.5110 H         1 <0>         0.1206
     39 H12         9.7551   -6.0158   -1.4840 H         1 <0>         0.1321
     40 H13        12.1780   -6.2246   -1.0959 H         1 <0>         0.1578
     41 H14        12.8829   -2.5244   -2.8385 H         1 <0>         0.1577
     42 H15        10.4825   -2.2098   -3.2901 H         1 <0>         0.1358
     43 H16         7.9798   -5.8539   -2.2598 H         1 <0>         0.3744
     44 H17         4.0347    2.0044    0.1081 H         1 <0>         0.4118
     45 H18         5.6516    2.3756   -0.1575 H         1 <0>         0.4030
@<TRIPOS>BOND
     1    1    6 ar
     2    1    2 ar
     3    1   28 1
     4    2    3 ar
     5    2   29 1
     6    3    4 ar
     7    3   30 1
     8    4    5 ar
     9    4    8 1
    10    5    6 ar
    11    5    7 1
    12    6   31 1
    13    7   32 1
    14    7   33 1
    15    8    9 1
    16    9   10 2
    17    9   27 1
    18   10   11 1
    19   10   13 1
    20   11   12 3
    21   13   18 ar
    22   13   14 ar
    23   14   15 ar
    24   14   34 1
    25   15   16 ar
    26   15   35 1
    27   16   17 ar
    28   16   36 1
    29   17   18 ar
    30   17   19 1
    31   18   37 1
    32   19   20 1
    33   19   26 1
    34   19   38 1
    35   20   25 ar
    36   20   21 ar
    37   21   22 ar
    38   21   39 1
    39   22   23 ar
    40   22   40 1
    41   23   24 ar
    42   24   25 ar
    43   24   41 1
    44   25   42 1
    45   26   43 1
    46   27   44 1
    47   27   45 1
@<TRIPOS>MOLECULE
CHEMBL418230
   45    47     0     0     0
SMALL
USER_CHARGES

@<TRIPOS>ATOM
      1 C1          1.0397   -0.3000   -3.1720 C.ar      1 <0>        -0.0635
      2 C2          2.2342    0.3969   -3.1800 C.ar      1 <0>        -0.1608
      3 C3          3.1372    0.2410   -2.1453 C.ar      1 <0>        -0.0730
      4 C4          2.8463   -0.6163   -1.0942 C.ar      1 <0>        -0.1918
      5 C5          1.6411   -1.3190   -1.0858 C.ar      1 <0>         0.2480
      6 C6          0.7413   -1.1566   -2.1287 C.ar      1 <0>        -0.1836
      7 N1          1.3414   -2.1853   -0.0290 N.pl3     1 <0>        -0.8700
      8 S1          3.9957   -0.8176    0.2260 S.3       1 <0>         0.0158
      9 C7          5.2449    0.3787   -0.1102 C.2       1 <0>         0.2138
     10 C8          6.5288   -0.0325   -0.4390 C.2       1 <0>        -0.1179
     11 C9          6.8385   -1.4290   -0.5049 C.1       1 <0>         0.2700
     12 N2          7.0842   -2.5369   -0.5572 N.1       1 <0>        -0.4241
     13 C10         7.5782    0.9725   -0.7215 C.ar      1 <0>        -0.0248
     14 C11         7.4614    1.8157   -1.8274 C.ar      1 <0>        -0.1040
     15 C12         8.4428    2.7501   -2.0853 C.ar      1 <0>        -0.1153
     16 C13         9.5416    2.8522   -1.2503 C.ar      1 <0>        -0.0818
     17 C14         9.6635    2.0191   -0.1526 C.ar      1 <0>        -0.1083
     18 C15         8.6854    1.0847    0.1200 C.ar      1 <0>        -0.0892
     19 C16        10.8637    2.1368    0.7511 C.3       1 <0>         0.2035
     20 C17        10.6169    3.2134    1.7763 C.ar      1 <0>         0.0953
     21 C18        10.7408    2.9177    3.1209 C.ar      1 <0>        -0.1556
     22 C19        10.5116    3.9152    4.0558 C.ar      1 <0>        -0.0732
     23 C20        10.1648    5.1786    3.6014 C.ar      1 <0>        -0.1691
     24 C21        10.0598    5.3997    2.2414 C.ar      1 <0>         0.1013
     25 N3         10.2905    4.4279    1.3802 N.ar      1 <0>        -0.4707
     26 O1         12.0142    2.4742   -0.0265 O.3       1 <0>        -0.5426
     27 N4          4.9481    1.7170   -0.0470 N.pl3     1 <0>        -0.8261
     28 H1          0.3359   -0.1713   -3.9810 H         1 <0>         0.1274
     29 H2          2.4623    1.0648   -3.9975 H         1 <0>         0.1252
     30 H3          4.0693    0.7864   -2.1552 H         1 <0>         0.1244
     31 H4         -0.1926   -1.6989   -2.1255 H         1 <0>         0.1288
     32 H5          1.9719   -2.2981    0.6995 H         1 <0>         0.3993
     33 H6          0.5030   -2.6732   -0.0247 H         1 <0>         0.4040
     34 H7          6.6047    1.7365   -2.4802 H         1 <0>         0.1244
     35 H8          8.3536    3.4032   -2.9408 H         1 <0>         0.1277
     36 H9         10.3075    3.5852   -1.4566 H         1 <0>         0.1242
     37 H10         8.7793    0.4381    0.9799 H         1 <0>         0.1241
     38 H11        11.0328    1.1859    1.2563 H         1 <0>         0.1216
     39 H12        11.0125    1.9220    3.4390 H         1 <0>         0.1370
     40 H13        10.6008    3.7131    5.1130 H         1 <0>         0.1371
     41 H14         9.9786    5.9795    4.3016 H         1 <0>         0.1366
     42 H15         9.7901    6.3809    1.8795 H         1 <0>         0.1579
     43 H16        11.9340    3.3108   -0.5048 H         1 <0>         0.3814
     44 H17         4.0347    2.0044    0.1081 H         1 <0>         0.4093
     45 H18         5.6516    2.3756   -0.1575 H         1 <0>         0.4072
@<TRIPOS>BOND
     1    1    6 ar
     2    1    2 ar
     3    1   28 1
     4    2    3 ar
     5    2   29 1
     6    3    4 ar
     7    3   30 1
     8    4    5 ar
     9    4    8 1
    10    5    6 ar
    11    5    7 1
    12    6   31 1
    13    7   32 1
    14    7   33 1
    15    8    9 1
    16    9   10 2
    17    9   27 1
    18   10   11 1
    19   10   13 1
    20   11   12 3
    21   13   18 ar
    22   13   14 ar
    23   14   15 ar
    24   14   34 1
    25   15   16 ar
    26   15   35 1
    27   16   17 ar
    28   16   36 1
    29   17   18 ar
    30   17   19 1
    31   18   37 1
    32   19   20 1
    33   19   26 1
    34   19   38 1
    35   20   25 ar
    36   20   21 ar
    37   21   22 ar
    38   21   39 1
    39   22   23 ar
    40   22   40 1
    41   23   24 ar
    42   23   41 1
    43   24   25 ar
    44   24   42 1
    45   26   43 1
    46   27   44 1
    47   27   45 1
@<TRIPOS>MOLECULE
CHEMBL418230__1
   45    47     0     0     0
SMALL
USER_CHARGES

@<TRIPOS>ATOM
      1 C1          1.7816   -0.0928   -4.0219 C.ar      1 <0>        -0.0647
      2 C2          2.9467    0.5957   -3.7371 C.ar      1 <0>        -0.1618
      3 C3          3.6088    0.3781   -2.5435 C.ar      1 <0>        -0.0717
      4 C4          3.1047   -0.5329   -1.6268 C.ar      1 <0>        -0.1927
      5 C5          1.9291   -1.2271   -1.9139 C.ar      1 <0>         0.2484
      6 C6          1.2718   -1.0025   -3.1143 C.ar      1 <0>        -0.1842
      7 N1          1.4151   -2.1472   -0.9939 N.pl3     1 <0>        -0.8698
      8 S1          3.9469   -0.8128   -0.1046 S.3       1 <0>         0.0427
      9 C7          5.2449    0.3787   -0.1102 C.2       1 <0>         0.2069
     10 C8          6.5673   -0.0362   -0.1786 C.2       1 <0>        -0.1164
     11 C9          7.6222    0.9321   -0.1832 C.1       1 <0>         0.2618
     12 N2          8.4591    1.7003   -0.1868 N.1       1 <0>        -0.4301
     13 C10         6.8874   -1.4798   -0.2467 C.ar      1 <0>        -0.0146
     14 C11         6.5795   -2.3173    0.8263 C.ar      1 <0>        -0.0865
     15 C12         6.8805   -3.6616    0.7566 C.ar      1 <0>        -0.1166
     16 C13         7.4868   -4.1802   -0.3740 C.ar      1 <0>        -0.0809
     17 C14         7.7951   -3.3553   -1.4409 C.ar      1 <0>        -0.1108
     18 C15         7.4931   -2.0100   -1.3863 C.ar      1 <0>        -0.0874
     19 C16         8.4559   -3.9284   -2.6681 C.3       1 <0>         0.2043
     20 C17         7.4035   -4.4877   -3.5904 C.ar      1 <0>         0.0977
     21 C18         7.3482   -4.0590   -4.9034 C.ar      1 <0>        -0.1564
     22 C19         6.3762   -4.5798   -5.7436 C.ar      1 <0>        -0.0731
     23 C20         5.4923   -5.5165   -5.2295 C.ar      1 <0>        -0.1697
     24 C21         5.6087   -5.8969   -3.9062 C.ar      1 <0>         0.1025
     25 N3          6.5495   -5.3842   -3.1371 N.ar      1 <0>        -0.4683
     26 O1          9.3541   -4.9708   -2.2826 O.3       1 <0>        -0.5438
     27 N4          4.9481    1.7170   -0.0470 N.pl3     1 <0>        -0.8335
     28 H1          1.2660    0.0840   -4.9543 H         1 <0>         0.1260
     29 H2          3.3405    1.3053   -4.4497 H         1 <0>         0.1230
     30 H3          4.5188    0.9170   -2.3248 H         1 <0>         0.1216
     31 H4          0.3615   -1.5381   -3.3400 H         1 <0>         0.1278
     32 H5          1.8762   -2.3034   -0.1549 H         1 <0>         0.3992
     33 H6          0.5976   -2.6291   -1.1951 H         1 <0>         0.4034
     34 H7          6.1069   -1.9136    1.7096 H         1 <0>         0.1224
     35 H8          6.6427   -4.3108    1.5864 H         1 <0>         0.1262
     36 H9          7.7208   -5.2334   -0.4236 H         1 <0>         0.1222
     37 H10         7.7298   -1.3679   -2.2218 H         1 <0>         0.1196
     38 H11         9.0098   -3.1432   -3.1826 H         1 <0>         0.1196
     39 H12         8.0530   -3.3274   -5.2700 H         1 <0>         0.1355
     40 H13         6.3089   -4.2633   -6.7740 H         1 <0>         0.1358
     41 H14         4.7223   -5.9429   -5.8553 H         1 <0>         0.1353
     42 H15         4.9242   -6.6258   -3.4982 H         1 <0>         0.1566
     43 H16         8.9288   -5.7048   -1.8184 H         1 <0>         0.3813
     44 H17         4.0347    2.0044    0.1081 H         1 <0>         0.4110
     45 H18         5.6516    2.3756   -0.1575 H         1 <0>         0.4026
@<TRIPOS>BOND
     1    1    6 ar
     2    1    2 ar
     3    1   28 1
     4    2    3 ar
     5    2   29 1
     6    3    4 ar
     7    3   30 1
     8    4    5 ar
     9    4    8 1
    10    5    6 ar
    11    5    7 1
    12    6   31 1
    13    7   32 1
    14    7   33 1
    15    8    9 1
    16    9   10 2
    17    9   27 1
    18   10   11 1
    19   10   13 1
    20   11   12 3
    21   13   18 ar
    22   13   14 ar
    23   14   15 ar
    24   14   34 1
    25   15   16 ar
    26   15   35 1
    27   16   17 ar
    28   16   36 1
    29   17   18 ar
    30   17   19 1
    31   18   37 1
    32   19   20 1
    33   19   26 1
    34   19   38 1
    35   20   25 ar
    36   20   21 ar
    37   21   22 ar
    38   21   39 1
    39   22   23 ar
    40   22   40 1
    41   23   24 ar
    42   23   41 1
    43   24   25 ar
    44   24   42 1
    45   26   43 1
    46   27   44 1
    47   27   45 1
@<TRIPOS>MOLECULE
CHEMBL418230__2
   45    47     0     0     0
SMALL
USER_CHARGES

@<TRIPOS>ATOM
      1 C1          1.0397   -0.3000   -3.1720 C.ar      1 <0>        -0.0638
      2 C2          2.2342    0.3969   -3.1800 C.ar      1 <0>        -0.1611
      3 C3          3.1372    0.2410   -2.1453 C.ar      1 <0>        -0.0731
      4 C4          2.8463   -0.6163   -1.0942 C.ar      1 <0>        -0.1916
      5 C5          1.6411   -1.3190   -1.0858 C.ar      1 <0>         0.2480
      6 C6          0.7413   -1.1566   -2.1287 C.ar      1 <0>        -0.1837
      7 N1          1.3414   -2.1853   -0.0290 N.pl3     1 <0>        -0.8700
      8 S1          3.9957   -0.8176    0.2260 S.3       1 <0>         0.0168
      9 C7          5.2449    0.3787   -0.1102 C.2       1 <0>         0.2133
     10 C8          6.5288   -0.0325   -0.4390 C.2       1 <0>        -0.1169
     11 C9          6.8385   -1.4290   -0.5049 C.1       1 <0>         0.2702
     12 N2          7.0842   -2.5369   -0.5572 N.1       1 <0>        -0.4232
     13 C10         7.5782    0.9725   -0.7215 C.ar      1 <0>        -0.0216
     14 C11         7.4614    1.8157   -1.8274 C.ar      1 <0>        -0.1046
     15 C12         8.4428    2.7501   -2.0853 C.ar      1 <0>        -0.1137
     16 C13         9.5416    2.8522   -1.2503 C.ar      1 <0>        -0.1065
     17 C14         9.6635    2.0191   -0.1526 C.ar      1 <0>        -0.0999
     18 C15         8.6854    1.0847    0.1200 C.ar      1 <0>        -0.0709
     19 C16        10.8637    2.1368    0.7511 C.3       1 <0>         0.2010
     20 C17        12.0350    1.4236    0.1261 C.ar      1 <0>         0.0938
     21 C18        13.2230    2.1026   -0.0695 C.ar      1 <0>        -0.1655
     22 C19        14.2944    1.4374   -0.6452 C.ar      1 <0>        -0.0723
     23 C20        14.1300    0.1081   -1.0043 C.ar      1 <0>        -0.1720
     24 C21        12.9125   -0.5049   -0.7780 C.ar      1 <0>         0.1042
     25 N3         11.9164    0.1577   -0.2229 N.ar      1 <0>        -0.4676
     26 O1         11.1885    3.5163    0.9343 O.3       1 <0>        -0.5420
     27 N4          4.9481    1.7170   -0.0470 N.pl3     1 <0>        -0.8262
     28 H1          0.3359   -0.1713   -3.9810 H         1 <0>         0.1272
     29 H2          2.4623    1.0648   -3.9975 H         1 <0>         0.1248
     30 H3          4.0693    0.7864   -2.1552 H         1 <0>         0.1244
     31 H4         -0.1926   -1.6989   -2.1255 H         1 <0>         0.1287
     32 H5          1.9719   -2.2981    0.6995 H         1 <0>         0.3995
     33 H6          0.5030   -2.6732   -0.0247 H         1 <0>         0.4039
     34 H7          6.6047    1.7365   -2.4802 H         1 <0>         0.1249
     35 H8          8.3536    3.4032   -2.9408 H         1 <0>         0.1271
     36 H9         10.3075    3.5852   -1.4566 H         1 <0>         0.1184
     37 H10         8.7793    0.4381    0.9799 H         1 <0>         0.1270
     38 H11        10.6369    1.6855    1.7170 H         1 <0>         0.1275
     39 H12        13.3153    3.1384    0.2222 H         1 <0>         0.1411
     40 H13        15.2345    1.9426   -0.8104 H         1 <0>         0.1367
     41 H14        14.9433   -0.4410   -1.4554 H         1 <0>         0.1366
     42 H15        12.7765   -1.5400   -1.0548 H         1 <0>         0.1577
     43 H16        11.4019    3.9824    0.1144 H         1 <0>         0.3764
     44 H17         4.0347    2.0044    0.1081 H         1 <0>         0.4095
     45 H18         5.6516    2.3756   -0.1575 H         1 <0>         0.4072
@<TRIPOS>BOND
     1    1    6 ar
     2    1    2 ar
     3    1   28 1
     4    2    3 ar
     5    2   29 1
     6    3    4 ar
     7    3   30 1
     8    4    5 ar
     9    4    8 1
    10    5    6 ar
    11    5    7 1
    12    6   31 1
    13    7   32 1
    14    7   33 1
    15    8    9 1
    16    9   10 2
    17    9   27 1
    18   10   11 1
    19   10   13 1
    20   11   12 3
    21   13   18 ar
    22   13   14 ar
    23   14   15 ar
    24   14   34 1
    25   15   16 ar
    26   15   35 1
    27   16   17 ar
    28   16   36 1
    29   17   18 ar
    30   17   19 1
    31   18   37 1
    32   19   20 1
    33   19   26 1
    34   19   38 1
    35   20   25 ar
    36   20   21 ar
    37   21   22 ar
    38   21   39 1
    39   22   23 ar
    40   22   40 1
    41   23   24 ar
    42   23   41 1
    43   24   25 ar
    44   24   42 1
    45   26   43 1
    46   27   44 1
    47   27   45 1
@<TRIPOS>MOLECULE
CHEMBL418230__3
   45    47     0     0     0
SMALL
USER_CHARGES

@<TRIPOS>ATOM
      1 C1          1.7816   -0.0928   -4.0219 C.ar      1 <0>        -0.0642
      2 C2          2.9467    0.5957   -3.7371 C.ar      1 <0>        -0.1614
      3 C3          3.6088    0.3781   -2.5435 C.ar      1 <0>        -0.0714
      4 C4          3.1047   -0.5329   -1.6268 C.ar      1 <0>        -0.1933
      5 C5          1.9291   -1.2271   -1.9139 C.ar      1 <0>         0.2482
      6 C6          1.2718   -1.0025   -3.1143 C.ar      1 <0>        -0.1840
      7 N1          1.4151   -2.1472   -0.9939 N.pl3     1 <0>        -0.8702
      8 S1          3.9469   -0.8128   -0.1046 S.3       1 <0>         0.0414
      9 C7          5.2449    0.3787   -0.1102 C.2       1 <0>         0.2071
     10 C8          6.5673   -0.0362   -0.1786 C.2       1 <0>        -0.1161
     11 C9          7.6222    0.9321   -0.1832 C.1       1 <0>         0.2621
     12 N2          8.4591    1.7003   -0.1868 N.1       1 <0>        -0.4293
     13 C10         6.8874   -1.4798   -0.2467 C.ar      1 <0>        -0.0113
     14 C11         6.5795   -2.3173    0.8263 C.ar      1 <0>        -0.0872
     15 C12         6.8805   -3.6616    0.7566 C.ar      1 <0>        -0.1150
     16 C13         7.4868   -4.1802   -0.3740 C.ar      1 <0>        -0.1057
     17 C14         7.7951   -3.3553   -1.4409 C.ar      1 <0>        -0.1024
     18 C15         7.4931   -2.0100   -1.3863 C.ar      1 <0>        -0.0690
     19 C16         8.4559   -3.9284   -2.6681 C.3       1 <0>         0.2018
     20 C17         9.9325   -4.0902   -2.4143 C.ar      1 <0>         0.0958
     21 C18        10.5266   -5.3242   -2.6011 C.ar      1 <0>        -0.1656
     22 C19        11.8856   -5.4623   -2.3649 C.ar      1 <0>        -0.0724
     23 C20        12.5995   -4.3491   -1.9477 C.ar      1 <0>        -0.1731
     24 C21        11.9373   -3.1476   -1.7825 C.ar      1 <0>         0.1035
     25 N3         10.6439   -3.0517   -2.0218 N.ar      1 <0>        -0.4678
     26 O1          7.8816   -5.2022   -2.9674 O.3       1 <0>        -0.5420
     27 N4          4.9481    1.7170   -0.0470 N.pl3     1 <0>        -0.8335
     28 H1          1.2660    0.0840   -4.9543 H         1 <0>         0.1263
     29 H2          3.3405    1.3053   -4.4497 H         1 <0>         0.1233
     30 H3          4.5188    0.9170   -2.3248 H         1 <0>         0.1220
     31 H4          0.3615   -1.5381   -3.3400 H         1 <0>         0.1281
     32 H5          1.8762   -2.3034   -0.1549 H         1 <0>         0.3990
     33 H6          0.5976   -2.6291   -1.1951 H         1 <0>         0.4035
     34 H7          6.1069   -1.9136    1.7096 H         1 <0>         0.1229
     35 H8          6.6427   -4.3108    1.5864 H         1 <0>         0.1256
     36 H9          7.7208   -5.2334   -0.4236 H         1 <0>         0.1162
     37 H10         7.7298   -1.3679   -2.2218 H         1 <0>         0.1225
     38 H11         8.3038   -3.2542   -3.5110 H         1 <0>         0.1259
     39 H12         9.9394   -6.1701   -2.9267 H         1 <0>         0.1412
     40 H13        12.3766   -6.4144   -2.5022 H         1 <0>         0.1363
     41 H14        13.6596   -4.4203   -1.7541 H         1 <0>         0.1359
     42 H15        12.4861   -2.2759   -1.4578 H         1 <0>         0.1567
     43 H16         7.9798   -5.8539   -2.2598 H         1 <0>         0.3760
     44 H17         4.0347    2.0044    0.1081 H         1 <0>         0.4110
     45 H18         5.6516    2.3756   -0.1575 H         1 <0>         0.4026
@<TRIPOS>BOND
     1    1    6 ar
     2    1    2 ar
     3    1   28 1
     4    2    3 ar
     5    2   29 1
     6    3    4 ar
     7    3   30 1
     8    4    5 ar
     9    4    8 1
    10    5    6 ar
    11    5    7 1
    12    6   31 1
    13    7   32 1
    14    7   33 1
    15    8    9 1
    16    9   10 2
    17    9   27 1
    18   10   11 1
    19   10   13 1
    20   11   12 3
    21   13   18 ar
    22   13   14 ar
    23   14   15 ar
    24   14   34 1
    25   15   16 ar
    26   15   35 1
    27   16   17 ar
    28   16   36 1
    29   17   18 ar
    30   17   19 1
    31   18   37 1
    32   19   20 1
    33   19   26 1
    34   19   38 1
    35   20   25 ar
    36   20   21 ar
    37   21   22 ar
    38   21   39 1
    39   22   23 ar
    40   22   40 1
    41   23   24 ar
    42   23   41 1
    43   24   25 ar
    44   24   42 1
    45   26   43 1
    46   27   44 1
    47   27   45 1
@<TRIPOS>MOLECULE
CHEMBL282976
   76    80     0     0     0
SMALL
USER_CHARGES

@<TRIPOS>ATOM
      1 C1         -4.3089    1.3482    4.7909 C.3       1 <0>         0.0229
      2 O1         -4.3110   -0.0808    4.7876 O.3       1 <0>        -0.2981
      3 C2         -4.4401   -0.6952    3.5814 C.ar      1 <0>         0.1253
      4 C3         -4.5541    0.0572    2.4479 C.ar      1 <0>        -0.1552
      5 C4         -4.6874   -0.5737    1.2023 C.ar      1 <0>        -0.1007
      6 C5         -4.7033   -1.9874    1.1242 C.ar      1 <0>         0.1668
      7 C6         -4.5850   -2.7387    2.3034 C.ar      1 <0>        -0.1784
      8 C7         -4.4492   -2.0952    3.5126 C.ar      1 <0>         0.1593
      9 O2         -4.3284   -2.8248    4.6522 O.3       1 <0>        -0.2926
     10 C8         -4.3446   -4.2472    4.5167 C.3       1 <0>         0.0549
     11 C9         -4.1981   -4.8927    5.8961 C.3       1 <0>        -0.1158
     12 C10        -4.2154   -6.4157    5.7509 C.3       1 <0>         0.0586
     13 N1         -4.0747   -7.0354    7.0754 N.3       1 <0>        -0.5363
     14 C11        -2.7488   -6.7603    7.6476 C.3       1 <0>         0.0125
     15 C12        -2.6667   -7.3720    9.0487 C.3       1 <0>         0.0624
     16 O3         -2.9417   -8.7732    8.9686 O.3       1 <0>        -0.3853
     17 C13        -4.2254   -9.0772    8.4163 C.3       1 <0>         0.0626
     18 C14        -4.3233   -8.4829    7.0089 C.3       1 <0>         0.0174
     19 N2         -4.8296   -2.5969   -0.0638 N.ar      1 <0>        -0.4641
     20 C15        -4.9414   -1.9237   -1.1803 C.ar      1 <0>         0.1797
     21 C16        -4.9349   -0.5196   -1.1968 C.ar      1 <0>        -0.0923
     22 C17        -4.8069    0.1808    0.0122 C.ar      1 <0>         0.2702
     23 N3         -4.7969    1.5612    0.0390 N.pl3     1 <0>        -0.7083
     24 C18        -5.9843    2.2643    0.2582 C.ar      1 <0>         0.1965
     25 C19        -7.1490    1.5799    0.5825 C.ar      1 <0>        -0.1761
     26 C20        -8.3208    2.2779    0.7985 C.ar      1 <0>        -0.0702
     27 C21        -8.3359    3.6566    0.6917 C.ar      1 <0>        -0.1174
     28 C22        -7.1784    4.3411    0.3691 C.ar      1 <0>        -0.0732
     29 C23        -6.0017    3.6498    0.1579 C.ar      1 <0>        -0.1741
     30 C24        -9.6169    4.4149    0.9271 C.3       1 <0>        -0.0733
     31 C25        -9.7265    4.7835    2.4080 C.3       1 <0>        -0.0793
     32 C26        -9.8520    3.5077    3.2432 C.3       1 <0>        -0.1155
     33 C27        -9.9617    3.8763    4.7241 C.3       1 <0>        -0.1196
     34 C28       -11.1974    4.7519    4.9415 C.3       1 <0>        -0.1207
     35 C29       -11.0719    6.0277    4.1063 C.3       1 <0>        -0.1197
     36 C30       -10.9623    5.6590    2.6255 C.3       1 <0>        -0.1155
     37 C31        -5.0581    0.1900   -2.4345 C.1       1 <0>         0.2563
     38 N4         -5.1559    0.7529   -3.4164 N.1       1 <0>        -0.3970
     39 H1         -4.1996    1.7090    5.8136 H         1 <0>         0.1065
     40 H2         -3.4777    1.7116    4.1866 H         1 <0>         0.0576
     41 H3         -5.2477    1.7138    4.3750 H         1 <0>         0.0596
     42 H4         -4.5421    1.1353    2.5102 H         1 <0>         0.1485
     43 H5         -4.5953   -3.8179    2.2618 H         1 <0>         0.1556
     44 H6         -5.2879   -4.5588    4.0681 H         1 <0>         0.0708
     45 H7         -3.5180   -4.5609    3.8791 H         1 <0>         0.0682
     46 H8         -3.2547   -4.5812    6.3446 H         1 <0>         0.0765
     47 H9         -5.0246   -4.5790    6.5336 H         1 <0>         0.0864
     48 H10        -5.1587   -6.7272    5.3024 H         1 <0>         0.0817
     49 H11        -3.3888   -6.7294    5.1134 H         1 <0>         0.0405
     50 H12        -1.9799   -7.2005    7.0127 H         1 <0>         0.0446
     51 H13        -2.5962   -5.6829    7.7113 H         1 <0>         0.0904
     52 H14        -1.6664   -7.2200    9.4541 H         1 <0>         0.0992
     53 H15        -3.3999   -6.8937    9.6982 H         1 <0>         0.0611
     54 H16        -4.3524  -10.1586    8.3645 H         1 <0>         0.0996
     55 H17        -5.0039   -8.6486    9.0474 H         1 <0>         0.0611
     56 H18        -5.3201   -8.6629    6.6063 H         1 <0>         0.0883
     57 H19        -3.5796   -8.9506    6.3637 H         1 <0>         0.0448
     58 H20        -5.0408   -2.4610   -2.1118 H         1 <0>         0.1730
     59 H21        -3.9656    2.0429   -0.0943 H         1 <0>         0.4164
     60 H22        -7.1380    0.5031    0.6653 H         1 <0>         0.1177
     61 H23        -9.2266    1.7465    1.0506 H         1 <0>         0.1223
     62 H24        -7.1938    5.4178    0.2862 H         1 <0>         0.1233
     63 H25        -5.0970    4.1854   -0.0893 H         1 <0>         0.1223
     64 H26        -9.6169    5.3238    0.3255 H         1 <0>         0.0702
     65 H27       -10.4652    3.7918    0.6440 H         1 <0>         0.0698
     66 H28        -8.8349    5.3312    2.7131 H         1 <0>         0.0697
     67 H29       -10.7437    2.9600    2.9381 H         1 <0>         0.0597
     68 H30        -8.9717    2.8840    3.0883 H         1 <0>         0.0651
     69 H31       -10.0511    2.9674    5.3191 H         1 <0>         0.0595
     70 H32        -9.0701    4.4241    5.0292 H         1 <0>         0.0594
     71 H33       -12.0891    4.2041    4.6365 H         1 <0>         0.0606
     72 H34       -11.2756    5.0145    5.9965 H         1 <0>         0.0593
     73 H35       -11.9523    6.6514    4.2613 H         1 <0>         0.0605
     74 H36       -10.1803    6.5754    4.4114 H         1 <0>         0.0604
     75 H37       -10.8729    6.5679    2.0305 H         1 <0>         0.0611
     76 H38       -11.8539    5.1113    2.3204 H         1 <0>         0.0619
@<TRIPOS>BOND
     1    1    2 1
     2    1   39 1
     3    1   40 1
     4    1   41 1
     5    2    3 1
     6    3    8 ar
     7    3    4 ar
     8    4    5 ar
     9    4   42 1
    10    5   22 ar
    11    5    6 ar
    12    6    7 ar
    13    6   19 ar
    14    7    8 ar
    15    7   43 1
    16    8    9 1
    17    9   10 1
    18   10   11 1
    19   10   44 1
    20   10   45 1
    21   11   12 1
    22   11   46 1
    23   11   47 1
    24   12   13 1
    25   12   48 1
    26   12   49 1
    27   13   18 1
    28   13   14 1
    29   14   15 1
    30   14   50 1
    31   14   51 1
    32   15   16 1
    33   15   52 1
    34   15   53 1
    35   16   17 1
    36   17   18 1
    37   17   54 1
    38   17   55 1
    39   18   56 1
    40   18   57 1
    41   19   20 ar
    42   20   21 ar
    43   20   58 1
    44   21   22 ar
    45   21   37 1
    46   22   23 1
    47   23   24 1
    48   23   59 1
    49   24   29 ar
    50   24   25 ar
    51   25   26 ar
    52   25   60 1
    53   26   27 ar
    54   26   61 1
    55   27   28 ar
    56   27   30 1
    57   28   29 ar
    58   28   62 1
    59   29   63 1
    60   30   31 1
    61   30   64 1
    62   30   65 1
    63   31   36 1
    64   31   32 1
    65   31   66 1
    66   32   33 1
    67   32   67 1
    68   32   68 1
    69   33   34 1
    70   33   69 1
    71   33   70 1
    72   34   35 1
    73   34   71 1
    74   34   72 1
    75   35   36 1
    76   35   73 1
    77   35   74 1
    78   36   75 1
    79   36   76 1
    80   37   38 3
@<TRIPOS>MOLECULE
CHEMBL282976__1
   77    81     0     0     0
SMALL
USER_CHARGES

@<TRIPOS>ATOM
      1 C1         -4.3089    1.3482    4.7909 C.3       1 <0>         0.0217
      2 O1         -4.3110   -0.0808    4.7876 O.3       1 <0>        -0.3024
      3 C2         -4.4401   -0.6952    3.5814 C.ar      1 <0>         0.1220
      4 C3         -4.5541    0.0572    2.4479 C.ar      1 <0>        -0.1465
      5 C4         -4.6874   -0.5737    1.2023 C.ar      1 <0>        -0.0973
      6 C5         -4.7033   -1.9874    1.1242 C.ar      1 <0>         0.1614
      7 C6         -4.5850   -2.7387    2.3034 C.ar      1 <0>        -0.1706
      8 C7         -4.4492   -2.0952    3.5126 C.ar      1 <0>         0.1489
      9 O2         -4.3284   -2.8248    4.6522 O.3       1 <0>        -0.2941
     10 C8         -4.3446   -4.2472    4.5167 C.3       1 <0>         0.0566
     11 C9         -4.1981   -4.8927    5.8961 C.3       1 <0>        -0.1505
     12 C10        -4.2154   -6.4157    5.7509 C.3       1 <0>        -0.0060
     13 N1         -4.0747   -7.0354    7.0754 N.4       1 <0>        -0.3843
     14 C11        -2.7521   -6.7138    7.6289 C.3       1 <0>        -0.0502
     15 C12        -2.6081   -7.3604    9.0088 C.3       1 <0>         0.0362
     16 O3         -2.7984   -8.7730    8.8898 O.3       1 <0>        -0.3563
     17 C13        -4.0645   -9.1365    8.3324 C.3       1 <0>         0.0354
     18 C14        -4.2112   -8.4932    6.9512 C.3       1 <0>        -0.0433
     19 N2         -4.8296   -2.5969   -0.0638 N.ar      1 <0>        -0.4669
     20 C15        -4.9414   -1.9237   -1.1803 C.ar      1 <0>         0.1849
     21 C16        -4.9349   -0.5196   -1.1968 C.ar      1 <0>        -0.0823
     22 C17        -4.8069    0.1808    0.0122 C.ar      1 <0>         0.2729
     23 N3         -4.7969    1.5612    0.0390 N.pl3     1 <0>        -0.7102
     24 C18        -5.9843    2.2643    0.2582 C.ar      1 <0>         0.1924
     25 C19        -7.1490    1.5799    0.5825 C.ar      1 <0>        -0.1773
     26 C20        -8.3208    2.2779    0.7985 C.ar      1 <0>        -0.0712
     27 C21        -8.3359    3.6566    0.6917 C.ar      1 <0>        -0.1132
     28 C22        -7.1784    4.3411    0.3691 C.ar      1 <0>        -0.0721
     29 C23        -6.0017    3.6498    0.1579 C.ar      1 <0>        -0.1712
     30 C24        -9.6169    4.4149    0.9271 C.3       1 <0>        -0.0753
     31 C25        -9.7265    4.7835    2.4080 C.3       1 <0>        -0.0791
     32 C26        -9.8520    3.5077    3.2432 C.3       1 <0>        -0.1148
     33 C27        -9.9617    3.8763    4.7241 C.3       1 <0>        -0.1187
     34 C28       -11.1974    4.7519    4.9415 C.3       1 <0>        -0.1210
     35 C29       -11.0719    6.0277    4.1063 C.3       1 <0>        -0.1203
     36 C30       -10.9623    5.6590    2.6255 C.3       1 <0>        -0.1162
     37 C31        -5.0581    0.1900   -2.4345 C.1       1 <0>         0.2483
     38 N4         -5.1559    0.7529   -3.4164 N.1       1 <0>        -0.3843
     39 H1         -4.1996    1.7090    5.8136 H         1 <0>         0.1083
     40 H2         -3.4777    1.7116    4.1866 H         1 <0>         0.0600
     41 H3         -5.2477    1.7138    4.3750 H         1 <0>         0.0619
     42 H4         -4.5421    1.1353    2.5102 H         1 <0>         0.1515
     43 H5         -4.5953   -3.8179    2.2618 H         1 <0>         0.1530
     44 H6         -5.2879   -4.5588    4.0681 H         1 <0>         0.0789
     45 H7         -3.5180   -4.5609    3.8791 H         1 <0>         0.0785
     46 H8         -3.2547   -4.5812    6.3446 H         1 <0>         0.1004
     47 H9         -5.0246   -4.5790    6.5336 H         1 <0>         0.1013
     48 H10        -5.1587   -6.7272    5.3024 H         1 <0>         0.1385
     49 H11        -3.3888   -6.7294    5.1134 H         1 <0>         0.1362
     50 H12        -1.9772   -7.0970    6.9651 H         1 <0>         0.1408
     51 H13        -2.6499   -5.6325    7.7215 H         1 <0>         0.1447
     52 H14        -1.6120   -7.1592    9.4029 H         1 <0>         0.1427
     53 H15        -3.3576   -6.9477    9.6841 H         1 <0>         0.0819
     54 H16        -4.1223  -10.2208    8.2370 H         1 <0>         0.1430
     55 H17        -4.8638   -8.7847    8.9846 H         1 <0>         0.0819
     56 H18        -5.1921   -8.7329    6.5408 H         1 <0>         0.1442
     57 H19        -3.4357   -8.8758    6.2877 H         1 <0>         0.1403
     58 H20        -5.0408   -2.4610   -2.1118 H         1 <0>         0.1761
     59 H21        -3.9656    2.0429   -0.0943 H         1 <0>         0.4179
     60 H22        -7.1380    0.5031    0.6653 H         1 <0>         0.1156
     61 H23        -9.2266    1.7465    1.0506 H         1 <0>         0.1225
     62 H24        -7.1938    5.4178    0.2862 H         1 <0>         0.1253
     63 H25        -5.0970    4.1854   -0.0893 H         1 <0>         0.1237
     64 H26        -9.6169    5.3238    0.3255 H         1 <0>         0.0721
     65 H27       -10.4652    3.7918    0.6440 H         1 <0>         0.0707
     66 H28        -8.8349    5.3312    2.7131 H         1 <0>         0.0700
     67 H29       -10.7437    2.9600    2.9381 H         1 <0>         0.0598
     68 H30        -8.9717    2.8840    3.0883 H         1 <0>         0.0633
     69 H31       -10.0511    2.9674    5.3191 H         1 <0>         0.0577
     70 H32        -9.0701    4.4241    5.0292 H         1 <0>         0.0592
     71 H33       -12.0891    4.2041    4.6365 H         1 <0>         0.0609
     72 H34       -11.2756    5.0145    5.9965 H         1 <0>         0.0598
     73 H35       -11.9523    6.6514    4.2613 H         1 <0>         0.0621
     74 H36       -10.1803    6.5754    4.4114 H         1 <0>         0.0607
     75 H37       -10.8729    6.5679    2.0305 H         1 <0>         0.0625
     76 H38       -11.8539    5.1113    2.3204 H         1 <0>         0.0624
     77 H39        -4.7921   -6.6815    7.6904 H         1 <0>         0.4246
@<TRIPOS>BOND
     1    1    2 1
     2    1   39 1
     3    1   40 1
     4    1   41 1
     5    2    3 1
     6    3    8 ar
     7    3    4 ar
     8    4    5 ar
     9    4   42 1
    10    5   22 ar
    11    5    6 ar
    12    6    7 ar
    13    6   19 ar
    14    7    8 ar
    15    7   43 1
    16    8    9 1
    17    9   10 1
    18   10   11 1
    19   10   44 1
    20   10   45 1
    21   11   12 1
    22   11   46 1
    23   11   47 1
    24   12   13 1
    25   12   48 1
    26   12   49 1
    27   13   18 1
    28   13   14 1
    29   13   77 1
    30   14   15 1
    31   14   50 1
    32   14   51 1
    33   15   16 1
    34   15   52 1
    35   15   53 1
    36   16   17 1
    37   17   18 1
    38   17   54 1
    39   17   55 1
    40   18   56 1
    41   18   57 1
    42   19   20 ar
    43   20   21 ar
    44   20   58 1
    45   21   22 ar
    46   21   37 1
    47   22   23 1
    48   23   24 1
    49   23   59 1
    50   24   29 ar
    51   24   25 ar
    52   25   26 ar
    53   25   60 1
    54   26   27 ar
    55   26   61 1
    56   27   28 ar
    57   27   30 1
    58   28   29 ar
    59   28   62 1
    60   29   63 1
    61   30   31 1
    62   30   64 1
    63   30   65 1
    64   31   36 1
    65   31   32 1
    66   31   66 1
    67   32   33 1
    68   32   67 1
    69   32   68 1
    70   33   34 1
    71   33   69 1
    72   33   70 1
    73   34   35 1
    74   34   71 1
    75   34   72 1
    76   35   36 1
    77   35   73 1
    78   35   74 1
    79   36   75 1
    80   36   76 1
    81   37   38 3
@<TRIPOS>MOLECULE
CHEMBL287852
   69    73     0     0     0
SMALL
USER_CHARGES

@<TRIPOS>ATOM
      1 C1         -2.0121    1.4392   -6.0977 C.3       1 <0>         0.0231
      2 O1         -1.9859    0.0107   -6.1265 O.3       1 <0>        -0.2979
      3 C2         -0.8672   -0.5960   -5.6475 C.ar      1 <0>         0.1258
      4 C3          0.1597    0.1630   -5.1645 C.ar      1 <0>        -0.1561
      5 C4          1.3149   -0.4600   -4.6697 C.ar      1 <0>        -0.1004
      6 C5          1.4125   -1.8726   -4.6727 C.ar      1 <0>         0.1669
      7 C6          0.3439   -2.6307   -5.1748 C.ar      1 <0>        -0.1783
      8 C7         -0.7813   -1.9951   -5.6489 C.ar      1 <0>         0.1595
      9 O2         -1.8172   -2.7314   -6.1286 O.3       1 <0>        -0.2925
     10 C8         -1.6696   -4.1526   -6.1034 C.3       1 <0>         0.0549
     11 C9         -2.9274   -4.8063   -6.6790 C.3       1 <0>        -0.1159
     12 C10        -2.7693   -6.3279   -6.6520 C.3       1 <0>         0.0586
     13 N1         -3.9770   -6.9556   -7.2047 N.3       1 <0>        -0.5363
     14 C11        -5.1394   -6.7158   -6.3372 C.3       1 <0>         0.0125
     15 C12        -6.3844   -7.3343   -6.9789 C.3       1 <0>         0.0624
     16 O3         -6.1557   -8.7278   -7.2049 O.3       1 <0>        -0.3853
     17 C13        -5.0312   -8.9976   -8.0464 C.3       1 <0>         0.0626
     18 C14        -3.7726   -8.3961   -7.4156 C.3       1 <0>         0.0174
     19 N2          2.5140   -2.4746   -4.2003 N.ar      1 <0>        -0.4635
     20 C15         3.5263   -1.7948   -3.7255 C.ar      1 <0>         0.1795
     21 C16         3.5155   -0.3913   -3.6835 C.ar      1 <0>        -0.0914
     22 C17         2.3935    0.3014   -4.1631 C.ar      1 <0>         0.2684
     23 N3          2.3438    1.6811   -4.1402 N.pl3     1 <0>        -0.7073
     24 C18         2.7364    2.4130   -5.2639 C.ar      1 <0>         0.2008
     25 C19         3.0482    1.7569   -6.4481 C.ar      1 <0>        -0.1757
     26 C20         3.4359    2.4833   -7.5567 C.ar      1 <0>        -0.0677
     27 C21         3.5144    3.8624   -7.4889 C.ar      1 <0>        -0.1214
     28 C22         3.2048    4.5187   -6.3117 C.ar      1 <0>        -0.0679
     29 C23         2.8104    3.7988   -5.2011 C.ar      1 <0>        -0.1736
     30 C24         3.9389    4.6517   -8.7004 C.3       1 <0>        -0.0331
     31 C25         2.7240    5.0122   -9.5159 C.ar      1 <0>        -0.1259
     32 C26         2.2701    4.1622  -10.5131 C.ar      1 <0>        -0.0717
     33 C27         1.1487    4.5348  -11.2379 C.ar      1 <0>        -0.1693
     34 C28         0.5246    5.7328  -10.9447 C.ar      1 <0>         0.0924
     35 N4          0.9845    6.5167   -9.9894 N.ar      1 <0>        -0.4826
     36 C29         2.0448    6.1914   -9.2757 C.ar      1 <0>         0.1025
     37 C30         4.6379    0.3255   -3.1572 C.1       1 <0>         0.2558
     38 N5          5.5283    0.8941   -2.7397 N.1       1 <0>        -0.3962
     39 H1         -1.9098    1.7838   -5.0687 H         1 <0>         0.0580
     40 H2         -1.1884    1.8298   -6.6953 H         1 <0>         0.0588
     41 H3         -2.9580    1.7936   -6.5072 H         1 <0>         0.1069
     42 H4          0.0829    1.2402   -5.1636 H         1 <0>         0.1481
     43 H5          0.4018   -3.7091   -5.1845 H         1 <0>         0.1559
     44 H6         -0.8049   -4.4387   -6.7021 H         1 <0>         0.0709
     45 H7         -1.5256   -4.4846   -5.0752 H         1 <0>         0.0684
     46 H8         -3.7921   -4.5202   -6.0803 H         1 <0>         0.0766
     47 H9         -3.0714   -4.4742   -7.7072 H         1 <0>         0.0864
     48 H10        -1.9046   -6.6140   -7.2507 H         1 <0>         0.0817
     49 H11        -2.6253   -6.6600   -5.6238 H         1 <0>         0.0405
     50 H12        -4.9669   -7.1730   -5.3629 H         1 <0>         0.0447
     51 H13        -5.2876   -5.6429   -6.2155 H         1 <0>         0.0904
     52 H14        -7.2377   -7.2089   -6.3124 H         1 <0>         0.0993
     53 H15        -6.5879   -6.8400   -7.9288 H         1 <0>         0.0611
     54 H16        -4.9059  -10.0752   -8.1520 H         1 <0>         0.0997
     55 H17        -5.1954   -8.5517   -9.0274 H         1 <0>         0.0611
     56 H18        -2.9230   -8.5496   -8.0810 H         1 <0>         0.0883
     57 H19        -3.5782   -8.8801   -6.4585 H         1 <0>         0.0448
     58 H20         4.3910   -2.3263   -3.3565 H         1 <0>         0.1733
     59 H21         2.0364    2.1422   -3.3442 H         1 <0>         0.4171
     60 H22         2.9878    0.6799   -6.5015 H         1 <0>         0.1193
     61 H23         3.6784    1.9739   -8.4776 H         1 <0>         0.1224
     62 H24         3.2675    5.5957   -6.2620 H         1 <0>         0.1255
     63 H25         2.5641    4.3123   -4.2834 H         1 <0>         0.1246
     64 H26         4.4457    5.5624   -8.3815 H         1 <0>         0.0853
     65 H27         4.6177    4.0510   -9.3059 H         1 <0>         0.0834
     66 H28         2.7784    3.2321  -10.7204 H         1 <0>         0.1322
     67 H29         0.7677    3.8973  -12.0221 H         1 <0>         0.1349
     68 H30        -0.3495    6.0304  -11.5048 H         1 <0>         0.1549
     69 H31         2.3891    6.8566   -8.4976 H         1 <0>         0.1524
@<TRIPOS>BOND
     1    1    2 1
     2    1   39 1
     3    1   40 1
     4    1   41 1
     5    2    3 1
     6    3    8 ar
     7    3    4 ar
     8    4    5 ar
     9    4   42 1
    10    5   22 ar
    11    5    6 ar
    12    6    7 ar
    13    6   19 ar
    14    7    8 ar
    15    7   43 1
    16    8    9 1
    17    9   10 1
    18   10   11 1
    19   10   44 1
    20   10   45 1
    21   11   12 1
    22   11   46 1
    23   11   47 1
    24   12   13 1
    25   12   48 1
    26   12   49 1
    27   13   18 1
    28   13   14 1
    29   14   15 1
    30   14   50 1
    31   14   51 1
    32   15   16 1
    33   15   52 1
    34   15   53 1
    35   16   17 1
    36   17   18 1
    37   17   54 1
    38   17   55 1
    39   18   56 1
    40   18   57 1
    41   19   20 ar
    42   20   21 ar
    43   20   58 1
    44   21   22 ar
    45   21   37 1
    46   22   23 1
    47   23   24 1
    48   23   59 1
    49   24   29 ar
    50   24   25 ar
    51   25   26 ar
    52   25   60 1
    53   26   27 ar
    54   26   61 1
    55   27   28 ar
    56   27   30 1
    57   28   29 ar
    58   28   62 1
    59   29   63 1
    60   30   31 1
    61   30   64 1
    62   30   65 1
    63   31   36 ar
    64   31   32 ar
    65   32   33 ar
    66   32   66 1
    67   33   34 ar
    68   33   67 1
    69   34   35 ar
    70   34   68 1
    71   35   36 ar
    72   36   69 1
    73   37   38 3
@<TRIPOS>MOLECULE
CHEMBL287852__1
   70    74     0     0     0
SMALL
USER_CHARGES

@<TRIPOS>ATOM
      1 C1         -4.3089    1.3482    4.7909 C.3       1 <0>         0.0220
      2 O1         -4.3110   -0.0808    4.7876 O.3       1 <0>        -0.3022
      3 C2         -4.4401   -0.6952    3.5814 C.ar      1 <0>         0.1225
      4 C3         -4.5541    0.0572    2.4479 C.ar      1 <0>        -0.1474
      5 C4         -4.6874   -0.5737    1.2023 C.ar      1 <0>        -0.0970
      6 C5         -4.7033   -1.9874    1.1242 C.ar      1 <0>         0.1615
      7 C6         -4.5850   -2.7387    2.3034 C.ar      1 <0>        -0.1704
      8 C7         -4.4492   -2.0952    3.5126 C.ar      1 <0>         0.1491
      9 O2         -4.3284   -2.8248    4.6522 O.3       1 <0>        -0.2941
     10 C8         -4.3446   -4.2472    4.5167 C.3       1 <0>         0.0565
     11 C9         -4.1981   -4.8927    5.8961 C.3       1 <0>        -0.1506
     12 C10        -4.2154   -6.4157    5.7509 C.3       1 <0>        -0.0060
     13 N1         -4.0747   -7.0354    7.0754 N.4       1 <0>        -0.3843
     14 C11        -2.7521   -6.7138    7.6289 C.3       1 <0>        -0.0502
     15 C12        -2.6081   -7.3604    9.0088 C.3       1 <0>         0.0361
     16 O3         -2.7984   -8.7730    8.8898 O.3       1 <0>        -0.3562
     17 C13        -4.0645   -9.1365    8.3324 C.3       1 <0>         0.0354
     18 C14        -4.2112   -8.4932    6.9512 C.3       1 <0>        -0.0433
     19 N2         -4.8296   -2.5969   -0.0638 N.ar      1 <0>        -0.4663
     20 C15        -4.9414   -1.9237   -1.1803 C.ar      1 <0>         0.1848
     21 C16        -4.9349   -0.5196   -1.1968 C.ar      1 <0>        -0.0814
     22 C17        -4.8069    0.1808    0.0122 C.ar      1 <0>         0.2711
     23 N3         -4.7969    1.5612    0.0390 N.pl3     1 <0>        -0.7092
     24 C18        -5.9843    2.2643    0.2582 C.ar      1 <0>         0.1968
     25 C19        -7.1490    1.5799    0.5825 C.ar      1 <0>        -0.1770
     26 C20        -8.3208    2.2779    0.7985 C.ar      1 <0>        -0.0686
     27 C21        -8.3359    3.6566    0.6917 C.ar      1 <0>        -0.1171
     28 C22        -7.1784    4.3411    0.3691 C.ar      1 <0>        -0.0669
     29 C23        -6.0017    3.6498    0.1579 C.ar      1 <0>        -0.1707
     30 C24        -9.6169    4.4149    0.9271 C.3       1 <0>        -0.0349
     31 C25        -9.7249    4.7779    2.3858 C.ar      1 <0>        -0.1264
     32 C26       -10.3401    3.9153    3.2803 C.ar      1 <0>        -0.0722
     33 C27       -10.4166    4.2908    4.6126 C.ar      1 <0>        -0.1705
     34 C28        -9.8810    5.5040    5.0023 C.ar      1 <0>         0.0932
     35 N4         -9.3034    6.2996    4.1236 N.ar      1 <0>        -0.4814
     36 C29        -9.2071    5.9721    2.8497 C.ar      1 <0>         0.1038
     37 C30        -5.0581    0.1900   -2.4345 C.1       1 <0>         0.2479
     38 N5         -5.1559    0.7529   -3.4164 N.1       1 <0>        -0.3834
     39 H1         -4.1996    1.7090    5.8136 H         1 <0>         0.1087
     40 H2         -3.4777    1.7116    4.1866 H         1 <0>         0.0604
     41 H3         -5.2477    1.7138    4.3750 H         1 <0>         0.0611
     42 H4         -4.5421    1.1353    2.5102 H         1 <0>         0.1511
     43 H5         -4.5953   -3.8179    2.2618 H         1 <0>         0.1533
     44 H6         -5.2879   -4.5588    4.0681 H         1 <0>         0.0789
     45 H7         -3.5180   -4.5609    3.8791 H         1 <0>         0.0786
     46 H8         -3.2547   -4.5812    6.3446 H         1 <0>         0.1005
     47 H9         -5.0246   -4.5790    6.5336 H         1 <0>         0.1013
     48 H10        -5.1587   -6.7272    5.3024 H         1 <0>         0.1384
     49 H11        -3.3888   -6.7294    5.1134 H         1 <0>         0.1363
     50 H12        -1.9772   -7.0970    6.9651 H         1 <0>         0.1408
     51 H13        -2.6499   -5.6325    7.7215 H         1 <0>         0.1447
     52 H14        -1.6120   -7.1592    9.4029 H         1 <0>         0.1427
     53 H15        -3.3576   -6.9477    9.6841 H         1 <0>         0.0820
     54 H16        -4.1223  -10.2208    8.2370 H         1 <0>         0.1430
     55 H17        -4.8638   -8.7847    8.9846 H         1 <0>         0.0819
     56 H18        -5.1921   -8.7329    6.5408 H         1 <0>         0.1441
     57 H19        -3.4357   -8.8758    6.2877 H         1 <0>         0.1404
     58 H20        -5.0408   -2.4610   -2.1118 H         1 <0>         0.1765
     59 H21        -3.9656    2.0429   -0.0943 H         1 <0>         0.4186
     60 H22        -7.1380    0.5031    0.6653 H         1 <0>         0.1172
     61 H23        -9.2266    1.7465    1.0506 H         1 <0>         0.1227
     62 H24        -7.1938    5.4178    0.2862 H         1 <0>         0.1276
     63 H25        -5.0970    4.1854   -0.0893 H         1 <0>         0.1260
     64 H26        -9.6169    5.3238    0.3255 H         1 <0>         0.0870
     65 H27       -10.4652    3.7918    0.6440 H         1 <0>         0.0842
     66 H28       -10.7502    2.9734    2.9470 H         1 <0>         0.1315
     67 H29       -10.8891    3.6438    5.3368 H         1 <0>         0.1343
     68 H30        -9.9365    5.8039    6.0383 H         1 <0>         0.1553
     69 H31        -8.7222    6.6473    2.1602 H         1 <0>         0.1532
     70 H32        -4.7921   -6.6815    7.6904 H         1 <0>         0.4246
@<TRIPOS>BOND
     1    1    2 1
     2    1   39 1
     3    1   40 1
     4    1   41 1
     5    2    3 1
     6    3    8 ar
     7    3    4 ar
     8    4    5 ar
     9    4   42 1
    10    5   22 ar
    11    5    6 ar
    12    6    7 ar
    13    6   19 ar
    14    7    8 ar
    15    7   43 1
    16    8    9 1
    17    9   10 1
    18   10   11 1
    19   10   44 1
    20   10   45 1
    21   11   12 1
    22   11   46 1
    23   11   47 1
    24   12   13 1
    25   12   48 1
    26   12   49 1
    27   13   18 1
    28   13   14 1
    29   13   70 1
    30   14   15 1
    31   14   50 1
    32   14   51 1
    33   15   16 1
    34   15   52 1
    35   15   53 1
    36   16   17 1
    37   17   18 1
    38   17   54 1
    39   17   55 1
    40   18   56 1
    41   18   57 1
    42   19   20 ar
    43   20   21 ar
    44   20   58 1
    45   21   22 ar
    46   21   37 1
    47   22   23 1
    48   23   24 1
    49   23   59 1
    50   24   29 ar
    51   24   25 ar
    52   25   26 ar
    53   25   60 1
    54   26   27 ar
    55   26   61 1
    56   27   28 ar
    57   27   30 1
    58   28   29 ar
    59   28   62 1
    60   29   63 1
    61   30   31 1
    62   30   64 1
    63   30   65 1
    64   31   36 ar
    65   31   32 ar
    66   32   33 ar
    67   32   66 1
    68   33   34 ar
    69   33   67 1
    70   34   35 ar
    71   34   68 1
    72   35   36 ar
    73   36   69 1
    74   37   38 3
@<TRIPOS>MOLECULE
CHEMBL162
   62    69     0     0     0
SMALL
USER_CHARGES

@<TRIPOS>ATOM
      1 C1         -0.1276    1.5938   -0.2902 C.3       1 <0>        -0.1687
      2 C2         -0.0844    0.0680   -0.1855 C.3       1 <0>         0.3345
      3 C3          0.5692   -0.4497   -1.4608 C.3       1 <0>         0.0405
      4 H1          1.4795    0.1163   -1.6584 H         1 <0>         0.1372
      5 C4          0.9165   -1.9328   -1.2885 C.3       1 <0>        -0.0062
      6 H2          1.3941   -2.3067   -2.1942 H         1 <0>         0.1555
      7 C5          1.8808   -2.0612   -0.1039 C.3       1 <0>        -0.1828
      8 C6          1.2106   -1.5234    1.1545 C.3       1 <0>         0.3001
      9 O1          0.6584   -0.2480    0.9698 O.3       1 <0>        -0.3232
     10 N1          0.2248   -2.4800    1.6600 N.pl3     1 <0>        -0.5368
     11 C7          0.4774   -3.5588    2.4701 C.ar      1 <0>         0.1470
     12 C8          1.6719   -4.0282    3.0159 C.ar      1 <0>        -0.1521
     13 C9          1.6013   -5.1613    3.8083 C.ar      1 <0>        -0.0582
     14 C10         0.4065   -5.8141    4.0588 C.ar      1 <0>        -0.1457
     15 C11        -0.7928   -5.3694    3.5296 C.ar      1 <0>        -0.0281
     16 C12        -0.7420   -4.2270    2.7281 C.ar      1 <0>        -0.1133
     17 C13        -1.7834   -3.4873    2.0211 C.ar      1 <0>         0.0272
     18 C14        -1.1387   -2.4235    1.3862 C.ar      1 <0>         0.0375
     19 C15        -1.8766   -1.5121    0.6225 C.ar      1 <0>         0.0893
     20 N2         -1.4701   -0.3965   -0.1042 N.pl3     1 <0>        -0.5183
     21 C16        -2.5609    0.1893   -0.7020 C.ar      1 <0>         0.1620
     22 C17        -2.6555    1.3256   -1.5046 C.ar      1 <0>        -0.1301
     23 C18        -3.9158    1.6704   -1.9636 C.ar      1 <0>        -0.0737
     24 C19        -5.0430    0.9315   -1.6503 C.ar      1 <0>        -0.1357
     25 C20        -4.9749   -0.2010   -0.8555 C.ar      1 <0>        -0.0503
     26 C21        -3.7134   -0.5626   -0.3834 C.ar      1 <0>        -0.1044
     27 C22        -3.2655   -1.6685    0.4924 C.ar      1 <0>        -0.0362
     28 C23        -3.9045   -2.7331    1.1195 C.ar      1 <0>        -0.0289
     29 C24        -3.1819   -3.6452    1.8815 C.ar      1 <0>        -0.1255
     30 C25        -4.1160   -4.6505    2.4114 C.2       1 <0>         0.5633
     31 O2         -3.7988   -5.5888    3.1172 O.2       1 <0>        -0.5106
     32 N3         -5.3694   -4.3854    2.0058 N.am      1 <0>        -0.7162
     33 C26        -5.3459   -3.1769    1.1740 C.3       1 <0>         0.1359
     34 N4         -0.3065   -2.7008   -1.0194 N.4       1 <0>        -0.5253
     35 C27         0.0148   -4.1335   -0.9747 C.3       1 <0>        -0.0497
     36 O3         -0.3352   -0.2957   -2.5564 O.3       1 <0>        -0.3613
     37 C28         0.3074   -0.0892   -3.8159 C.3       1 <0>         0.0162
     38 H3          0.8308    2.0068    0.0247 H         1 <0>         0.0984
     39 H4         -0.3256    1.8817   -1.3227 H         1 <0>         0.1037
     40 H5         -0.9185    1.9799    0.3528 H         1 <0>         0.0921
     41 H6          2.1400   -3.1098    0.0419 H         1 <0>         0.1233
     42 H7          2.7852   -1.4878   -0.3076 H         1 <0>         0.1455
     43 H8          1.9835   -1.4379    1.9183 H         1 <0>         0.1550
     44 H9          2.6113   -3.5296    2.8282 H         1 <0>         0.1364
     45 H10         2.5093   -5.5494    4.2456 H         1 <0>         0.1359
     46 H11         0.4102   -6.6943    4.6846 H         1 <0>         0.1352
     47 H12        -1.7231   -5.8814    3.7271 H         1 <0>         0.1602
     48 H13        -1.7841    1.9115   -1.7569 H         1 <0>         0.1438
     49 H14        -4.0225    2.5459   -2.5869 H         1 <0>         0.1335
     50 H15        -6.0015    1.2460   -2.0361 H         1 <0>         0.1333
     51 H16        -5.8562   -0.7761   -0.6128 H         1 <0>         0.1416
     52 H17        -6.1577   -4.9060    2.2257 H         1 <0>         0.4348
     53 H18        -5.9609   -2.3989    1.6262 H         1 <0>         0.1115
     54 H19        -5.7062   -3.4047    0.1708 H         1 <0>         0.1104
     55 H20        -0.6946   -2.4153   -0.1328 H         1 <0>         0.4186
     56 H21         0.7414   -4.3184   -0.1836 H         1 <0>         0.1191
     57 H22        -0.8927   -4.7033   -0.7750 H         1 <0>         0.1256
     58 H23         0.4340   -4.4418   -1.9324 H         1 <0>         0.1255
     59 H24        -0.4469    0.0185   -4.5954 H         1 <0>         0.1100
     60 H25         0.9142    0.8152   -3.7703 H         1 <0>         0.0633
     61 H26         0.9451   -0.9435   -4.0429 H         1 <0>         0.0514
     62 H27        -0.9792   -2.5296   -1.7517 H         1 <0>         0.4274
@<TRIPOS>BOND
     1    1    2 1
     2    1   38 1
     3    1   39 1
     4    1   40 1
     5    2    9 1
     6    2   20 1
     7    2    3 1
     8    3    4 1
     9    3    5 1
    10    3   36 1
    11    5    6 1
    12    5    7 1
    13    5   34 1
    14    7    8 1
    15    7   41 1
    16    7   42 1
    17    8    9 1
    18    8   10 1
    19    8   43 1
    20   10   18 1
    21   10   11 1
    22   11   16 ar
    23   11   12 ar
    24   12   13 ar
    25   12   44 1
    26   13   14 ar
    27   13   45 1
    28   14   15 ar
    29   14   46 1
    30   15   16 ar
    31   15   47 1
    32   16   17 1
    33   17   29 ar
    34   17   18 ar
    35   18   19 ar
    36   19   27 ar
    37   19   20 1
    38   20   21 1
    39   21   26 ar
    40   21   22 ar
    41   22   23 ar
    42   22   48 1
    43   23   24 ar
    44   23   49 1
    45   24   25 ar
    46   24   50 1
    47   25   26 ar
    48   25   51 1
    49   26   27 1
    50   27   28 ar
    51   28   33 1
    52   28   29 ar
    53   29   30 1
    54   30   31 2
    55   30   32 am
    56   32   33 1
    57   32   52 1
    58   33   53 1
    59   33   54 1
    60   34   35 1
    61   34   55 1
    62   34   62 1
    63   35   56 1
    64   35   57 1
    65   35   58 1
    66   36   37 1
    67   37   59 1
    68   37   60 1
    69   37   61 1
@<TRIPOS>MOLECULE
CHEMBL162__1
   61    68     0     0     0
SMALL
USER_CHARGES

@<TRIPOS>ATOM
      1 C1         -0.0567    1.5513   -0.0894 C.3       1 <0>        -0.1681
      2 C2         -0.0278    0.0218   -0.0599 C.3       1 <0>         0.3623
      3 C3          0.5811   -0.4397   -1.3782 C.3       1 <0>         0.0679
      4 H1          1.4914    0.1262   -1.5761 H         1 <0>         0.0865
      5 C4          0.9165   -1.9328   -1.2885 C.3       1 <0>         0.0550
      6 H2          1.3622   -2.2669   -2.2254 H         1 <0>         0.0644
      7 C5          1.9146   -2.1282   -0.1417 C.3       1 <0>        -0.1713
      8 C6          1.2889   -1.6457    1.1613 C.3       1 <0>         0.3303
      9 O1          0.7459   -0.3574    1.0554 O.3       1 <0>        -0.3432
     10 N1          0.3079   -2.6158    1.6500 N.pl3     1 <0>        -0.5147
     11 C7          0.5725   -3.7353    2.3988 C.ar      1 <0>         0.1480
     12 C8          1.7775   -4.2425    2.8844 C.ar      1 <0>        -0.1567
     13 C9          1.7179   -5.4120    3.6229 C.ar      1 <0>        -0.0771
     14 C10         0.5239   -6.0644    3.8782 C.ar      1 <0>        -0.1623
     15 C11        -0.6857   -5.5826    3.4081 C.ar      1 <0>        -0.0380
     16 C12        -0.6461   -4.4031    2.6615 C.ar      1 <0>        -0.1052
     17 C13        -1.6998   -3.6196    2.0235 C.ar      1 <0>        -0.0146
     18 C14        -1.0625   -2.5326    1.4212 C.ar      1 <0>         0.1328
     19 C15        -1.8127   -1.5778    0.7254 C.ar      1 <0>         0.2189
     20 N2         -1.4156   -0.4323    0.0413 N.pl3     1 <0>        -0.4798
     21 C16        -2.5171    0.1927   -0.4937 C.ar      1 <0>         0.1719
     22 C17        -2.6230    1.3676   -1.2371 C.ar      1 <0>        -0.1371
     23 C18        -3.8926    1.7468   -1.6400 C.ar      1 <0>        -0.0918
     24 C19        -5.0181    1.0048   -1.3284 C.ar      1 <0>        -0.1543
     25 C20        -4.9390   -0.1657   -0.5916 C.ar      1 <0>        -0.0609
     26 C21        -3.6680   -0.5623   -0.1765 C.ar      1 <0>        -0.0961
     27 C22        -3.2066   -1.7140    0.6307 C.ar      1 <0>        -0.0806
     28 C23        -3.8384   -2.8014    1.2249 C.ar      1 <0>        -0.0396
     29 C24        -3.1037   -3.7566    1.9194 C.ar      1 <0>        -0.1488
     30 C25        -4.0327   -4.7771    2.4285 C.2       1 <0>         0.5678
     31 O2         -3.7051   -5.7517    3.0781 O.2       1 <0>        -0.5303
     32 N3         -5.2947   -4.4802    2.0748 N.am      1 <0>        -0.7263
     33 C26        -5.2825   -3.2330    1.3021 C.3       1 <0>         0.1443
     34 N4         -0.3065   -2.7008   -1.0194 N.3       1 <0>        -0.6725
     35 C27        -0.9816   -3.0711   -2.2704 C.3       1 <0>         0.0321
     36 O3         -0.3541   -0.2236   -2.4368 O.3       1 <0>        -0.3500
     37 C28         0.2525    0.0376   -3.7040 C.3       1 <0>         0.0254
     38 H3          0.9143    1.9390    0.2190 H         1 <0>         0.0847
     39 H4         -0.2789    1.8910   -1.1010 H         1 <0>         0.0945
     40 H5         -0.8258    1.9134    0.5927 H         1 <0>         0.0811
     41 H6          2.1661   -3.1852   -0.0547 H         1 <0>         0.0955
     42 H7          2.8189   -1.5546   -0.3450 H         1 <0>         0.1024
     43 H8          2.0854   -1.6051    1.9042 H         1 <0>         0.1256
     44 H9          2.7165   -3.7447    2.6923 H         1 <0>         0.1264
     45 H10         2.6343   -5.8299    4.0129 H         1 <0>         0.1227
     46 H11         0.5364   -6.9739    4.4603 H         1 <0>         0.1222
     47 H12        -1.6153   -6.0942    3.6091 H         1 <0>         0.1517
     48 H13        -1.7529    1.9564   -1.4875 H         1 <0>         0.1345
     49 H14        -4.0081    2.6526   -2.2167 H         1 <0>         0.1197
     50 H15        -5.9842    1.3471   -1.6689 H         1 <0>         0.1193
     51 H16        -5.8191   -0.7431   -0.3501 H         1 <0>         0.1299
     52 H17        -6.0819   -5.0031    2.2935 H         1 <0>         0.4244
     53 H18        -5.8747   -2.4718    1.8101 H         1 <0>         0.0969
     54 H19        -5.6755   -3.4081    0.3006 H         1 <0>         0.0963
     55 H20        -0.1054   -3.5172   -0.4616 H         1 <0>         0.3444
     56 H21        -1.8838   -3.6387   -2.0422 H         1 <0>         0.0645
     57 H22        -1.2495   -2.1685   -2.8197 H         1 <0>         0.0818
     58 H23        -0.3126   -3.6808   -2.8776 H         1 <0>         0.0150
     59 H24        -0.5237    0.1905   -4.4538 H         1 <0>         0.0929
     60 H25         0.8707    0.9325   -3.6333 H         1 <0>         0.0448
     61 H26         0.8732   -0.8111   -3.9915 H         1 <0>         0.0400
@<TRIPOS>BOND
     1    1    2 1
     2    1   38 1
     3    1   39 1
     4    1   40 1
     5    2    9 1
     6    2   20 1
     7    2    3 1
     8    3    4 1
     9    3    5 1
    10    3   36 1
    11    5    6 1
    12    5    7 1
    13    5   34 1
    14    7    8 1
    15    7   41 1
    16    7   42 1
    17    8    9 1
    18    8   10 1
    19    8   43 1
    20   10   18 1
    21   10   11 1
    22   11   16 ar
    23   11   12 ar
    24   12   13 ar
    25   12   44 1
    26   13   14 ar
    27   13   45 1
    28   14   15 ar
    29   14   46 1
    30   15   16 ar
    31   15   47 1
    32   16   17 1
    33   17   29 ar
    34   17   18 ar
    35   18   19 ar
    36   19   27 ar
    37   19   20 1
    38   20   21 1
    39   21   26 ar
    40   21   22 ar
    41   22   23 ar
    42   22   48 1
    43   23   24 ar
    44   23   49 1
    45   24   25 ar
    46   24   50 1
    47   25   26 ar
    48   25   51 1
    49   26   27 1
    50   27   28 ar
    51   28   33 1
    52   28   29 ar
    53   29   30 1
    54   30   31 2
    55   30   32 am
    56   32   33 1
    57   32   52 1
    58   33   53 1
    59   33   54 1
    60   34   35 1
    61   34   55 1
    62   35   56 1
    63   35   57 1
    64   35   58 1
    65   36   37 1
    66   37   59 1
    67   37   60 1
    68   37   61 1
@<TRIPOS>MOLECULE
CHEMBL253116
   47    49     0     0     0
SMALL
USER_CHARGES

@<TRIPOS>ATOM
      1 C1         -0.0621    1.5750    0.0263 C.3       1 <0>        -0.1647
      2 C2         -0.0153    0.0460   -0.0006 C.3       1 <0>         0.1260
      3 C3          0.7017   -0.4201   -1.2692 C.3       1 <0>         0.0725
      4 O1          0.0642    0.1506   -2.4137 O.3       1 <0>        -0.5594
      5 N1         -1.3808   -0.4847    0.0115 N.pl3     1 <0>        -0.6855
      6 C4         -2.0360   -0.6560    1.1967 C.2       1 <0>         0.5916
      7 N2         -1.3859   -0.4280    2.3750 N.pl3     1 <0>        -0.8380
      8 C5         -3.3718   -1.0646    1.2036 C.2       1 <0>        -0.4073
      9 C6         -4.0911   -1.4598    0.0124 C.2       1 <0>         0.4398
     10 N3         -5.3339   -1.8269    0.1129 N.2       1 <0>        -0.5894
     11 S1         -5.7227   -1.7091    1.7353 S.3       1 <0>        -0.0199
     12 C7         -4.1652   -1.1407    2.3874 C.2       1 <0>         0.2624
     13 N4         -3.8313   -0.8612    3.6421 N.2       1 <0>        -0.5939
     14 C8         -4.7517   -1.0024    4.6414 C.ar      1 <0>         0.1385
     15 C9         -6.0554   -0.5286    4.4659 C.ar      1 <0>        -0.1397
     16 C10        -6.9812   -0.6737    5.4771 C.ar      1 <0>        -0.1252
     17 C11        -6.6202   -1.2895    6.6696 C.ar      1 <0>         0.1222
     18 C12        -5.3254   -1.7616    6.8486 C.ar      1 <0>        -0.1382
     19 C13        -4.3946   -1.6264    5.8406 C.ar      1 <0>        -0.1150
     20 N5         -7.5640   -1.4343    7.6943 N.pl3     1 <0>        -0.6876
     21 C14        -8.9088   -1.6435    7.3805 C.ar      1 <0>         0.1974
     22 C15        -9.2589   -2.2207    6.1661 C.ar      1 <0>        -0.1688
     23 C16       -10.5895   -2.4260    5.8592 C.ar      1 <0>        -0.0816
     24 C17       -11.5731   -2.0579    6.7589 C.ar      1 <0>        -0.1688
     25 C18       -11.2283   -1.4832    7.9686 C.ar      1 <0>        -0.0867
     26 C19        -9.8994   -1.2801    8.2845 C.ar      1 <0>        -0.1838
     27 O2         -3.4749   -1.4470   -1.1974 O.3       1 <0>        -0.7181
     28 H1          0.9539    1.9698    0.0173 H         1 <0>         0.0626
     29 H2         -0.6005    1.9375   -0.8494 H         1 <0>         0.0748
     30 H3         -0.5729    1.9071    0.9301 H         1 <0>         0.0570
     31 H4          0.5231   -0.3165    0.8751 H         1 <0>         0.0824
     32 H5          1.7432   -0.1003   -1.2362 H         1 <0>         0.0578
     33 H6          0.6574   -1.5073   -1.3330 H         1 <0>         0.0548
     34 H7          0.4672   -0.1024   -3.2555 H         1 <0>         0.3800
     35 H8         -1.8193   -0.7142   -0.8227 H         1 <0>         0.4425
     36 H9         -0.4583   -0.1443    2.3702 H         1 <0>         0.3890
     37 H10        -6.3367   -0.0493    3.5399 H         1 <0>         0.1275
     38 H11        -7.9885   -0.3081    5.3425 H         1 <0>         0.1170
     39 H12        -5.0491   -2.2391    7.7771 H         1 <0>         0.1147
     40 H13        -3.3898   -1.9975    5.9789 H         1 <0>         0.1192
     41 H14        -7.2837   -1.3893    8.6218 H         1 <0>         0.4031
     42 H15        -8.4913   -2.5081    5.4629 H         1 <0>         0.1304
     43 H16       -10.8624   -2.8743    4.9153 H         1 <0>         0.1224
     44 H17       -12.6130   -2.2193    6.5162 H         1 <0>         0.1164
     45 H18       -11.9990   -1.1969    8.6689 H         1 <0>         0.1180
     46 H19        -9.6306   -0.8353    9.2313 H         1 <0>         0.1177
     47 H20        -1.8515   -0.5498    3.2172 H         1 <0>         0.4338
@<TRIPOS>BOND
     1    1    2 1
     2    1   28 1
     3    1   29 1
     4    1   30 1
     5    2    3 1
     6    2    5 1
     7    2   31 1
     8    3    4 1
     9    3   32 1
    10    3   33 1
    11    4   34 1
    12    5    6 1
    13    5   35 1
    14    6    7 1
    15    6    8 2
    16    7   36 1
    17    7   47 1
    18    8    9 1
    19    8   12 1
    20    9   10 2
    21    9   27 1
    22   10   11 1
    23   11   12 1
    24   12   13 2
    25   13   14 1
    26   14   19 ar
    27   14   15 ar
    28   15   16 ar
    29   15   37 1
    30   16   17 ar
    31   16   38 1
    32   17   18 ar
    33   17   20 1
    34   18   19 ar
    35   18   39 1
    36   19   40 1
    37   20   21 1
    38   20   41 1
    39   21   26 ar
    40   21   22 ar
    41   22   23 ar
    42   22   42 1
    43   23   24 ar
    44   23   43 1
    45   24   25 ar
    46   24   44 1
    47   25   26 ar
    48   25   45 1
    49   26   46 1
@<TRIPOS>MOLECULE
CHEMBL253116__1
   49    51     0     0     0
SMALL
NO_CHARGES

@<TRIPOS>ATOM
      1 C1         -1.6077    1.4748    0.3226 C.3       1 <0>        -0.1698
      2 C2         -1.2416   -0.0096    0.2641 C.3       1 <0>         0.1355
      3 C3         -0.5482   -0.4156    1.5661 C.3       1 <0>         0.0701
      4 O1          0.5737    0.4394    1.7949 O.3       1 <0>        -0.5675
      5 N1         -0.3379   -0.2455   -0.8646 N.pl3     1 <0>        -0.6647
      6 C4         -0.8484   -0.4568   -2.1183 C.cat     1 <0>         0.3351
      7 N2         -2.1280   -0.4480   -2.3054 N.pl3     1 <0>        -0.7536
      8 C5          0.0812   -0.6996   -3.2793 C.3       1 <0>        -0.0682
      9 C6          0.4993    0.6121   -3.8566 C.2       1 <0>         0.4980
     10 N3          0.2093    0.8528   -5.1362 N.am      1 <0>        -0.7251
     11 S1         -0.5889   -0.4797   -5.7454 S.3       1 <0>         0.1593
     12 C7         -0.6295   -1.5449   -4.3199 C.2       1 <0>         0.0698
     13 N4         -1.1376   -2.7417   -4.2009 N.2       1 <0>        -0.4346
     14 C8         -0.9676   -3.4460   -3.0367 C.ar      1 <0>         0.0706
     15 C9          0.3086   -3.6004   -2.4924 C.ar      1 <0>        -0.1331
     16 C10         0.4760   -4.3088   -1.3215 C.ar      1 <0>        -0.1368
     17 C11        -0.6242   -4.8692   -0.6832 C.ar      1 <0>         0.1391
     18 C12        -1.8962   -4.7174   -1.2224 C.ar      1 <0>        -0.1358
     19 C13        -2.0712   -4.0053   -2.3900 C.ar      1 <0>        -0.0959
     20 N5         -0.4508   -5.5880    0.5040 N.pl3     1 <0>        -0.6852
     21 C14        -1.3090   -6.6464    0.8113 C.ar      1 <0>         0.1868
     22 C15        -1.9337   -7.3547   -0.2077 C.ar      1 <0>        -0.1684
     23 C16        -2.7815   -8.4005    0.0998 C.ar      1 <0>        -0.0844
     24 C17        -3.0091   -8.7429    1.4202 C.ar      1 <0>        -0.1598
     25 C18        -2.3890   -8.0400    2.4370 C.ar      1 <0>        -0.0847
     26 C19        -1.5355   -6.9968    2.1366 C.ar      1 <0>        -0.1753
     27 O2          1.0845    1.4343   -3.1824 O.2       1 <0>        -0.5224
     28 H1         -0.7021    2.0676    0.4521 H         1 <0>         0.0775
     29 H2         -2.1017    1.7641   -0.6050 H         1 <0>         0.0562
     30 H3         -2.2800    1.6504    1.1624 H         1 <0>         0.0706
     31 H4         -2.1471   -0.6023    0.1345 H         1 <0>         0.0920
     32 H5         -1.2498   -0.3241    2.3952 H         1 <0>         0.0662
     33 H6         -0.2083   -1.4484    1.4900 H         1 <0>         0.0579
     34 H7          1.0620    0.2392    2.6053 H         1 <0>         0.3871
     35 H8          0.6219   -0.2521   -0.7243 H         1 <0>         0.4237
     36 H9         -2.4894   -0.5977   -3.1930 H         1 <0>         0.4268
     37 H10         0.9635   -1.2338   -2.9266 H         1 <0>         0.1253
     38 H11         1.1640   -3.1657   -2.9883 H         1 <0>         0.1139
     39 H12         1.4630   -4.4286   -0.8999 H         1 <0>         0.1172
     40 H13        -2.7490   -5.1541   -0.7240 H         1 <0>         0.1231
     41 H14        -3.0604   -3.8842   -2.8063 H         1 <0>         0.1231
     42 H15         0.2654   -5.3515    1.1139 H         1 <0>         0.4052
     43 H16        -1.7567   -7.0875   -1.2390 H         1 <0>         0.1264
     44 H17        -3.2677   -8.9513   -0.6918 H         1 <0>         0.1230
     45 H18        -3.6730   -9.5610    1.6578 H         1 <0>         0.1203
     46 H19        -2.5690   -8.3102    3.4670 H         1 <0>         0.1224
     47 H20        -1.0480   -6.4512    2.9310 H         1 <0>         0.1198
     48 H21        -2.7263   -0.2918   -1.5580 H         1 <0>         0.4071
     49 H22         0.4244    1.6615   -5.6267 H         1 <0>         0.4161
@<TRIPOS>BOND
     1    1    2 1
     2    1   28 1
     3    1   29 1
     4    1   30 1
     5    2    3 1
     6    2    5 1
     7    2   31 1
     8    3    4 1
     9    3   32 1
    10    3   33 1
    11    4   34 1
    12    5    6 1
    13    5   35 1
    14    6    7 2
    15    6    8 1
    16    7   36 1
    17    7   48 1
    18    8    9 1
    19    8   37 1
    20    8   12 1
    21    9   10 am
    22    9   27 2
    23   10   11 1
    24   10   49 1
    25   11   12 1
    26   12   13 2
    27   13   14 1
    28   14   19 ar
    29   14   15 ar
    30   15   16 ar
    31   15   38 1
    32   16   17 ar
    33   16   39 1
    34   17   18 ar
    35   17   20 1
    36   18   19 ar
    37   18   40 1
    38   19   41 1
    39   20   21 1
    40   20   42 1
    41   21   26 ar
    42   21   22 ar
    43   22   23 ar
    44   22   43 1
    45   23   24 ar
    46   23   44 1
    47   24   25 ar
    48   24   45 1
    49   25   26 ar
    50   25   46 1
    51   26   47 1
@<TRIPOS>MOLECULE
CHEMBL253116__2
   49    51     0     0     0
SMALL
NO_CHARGES

@<TRIPOS>ATOM
      1 C1          0.4288    1.4587   -0.1970 C.3       1 <0>        -0.1679
      2 C2          0.3976   -0.0710   -0.1878 C.3       1 <0>         0.1394
      3 C3          1.1559   -0.5892    1.0358 C.3       1 <0>         0.0677
      4 O1          2.4777   -0.0462    1.0422 O.3       1 <0>        -0.5674
      5 N1          1.0314   -0.5797   -1.4067 N.pl3     1 <0>        -0.6711
      6 C4          0.3005   -0.7025   -2.5589 C.cat     1 <0>         0.2716
      7 N2         -0.9491   -0.3695   -2.5705 N.pl3     1 <0>        -0.7640
      8 C5          0.9525   -1.2258   -3.8127 C.3       1 <0>        -0.0182
      9 C6          1.5938   -0.0925   -4.5428 C.2       1 <0>         0.5114
     10 N3          1.1831    0.1624   -5.7860 N.am      1 <0>        -0.7197
     11 S1         -0.0067   -0.9410   -6.1746 S.3       1 <0>         0.0701
     12 C7         -0.0967   -1.8996   -4.6774 C.2       1 <0>         0.0924
     13 N4         -0.8647   -2.9175   -4.3968 N.2       1 <0>        -0.4287
     14 C8         -1.7585   -3.3794   -5.3285 C.ar      1 <0>         0.0496
     15 C9         -2.5455   -2.4795   -6.0492 C.ar      1 <0>        -0.1231
     16 C10        -3.4429   -2.9472   -6.9856 C.ar      1 <0>        -0.1406
     17 C11        -3.5647   -4.3132   -7.2120 C.ar      1 <0>         0.1639
     18 C12        -2.7826   -5.2119   -6.4961 C.ar      1 <0>        -0.1531
     19 C13        -1.8792   -4.7504   -5.5624 C.ar      1 <0>        -0.0698
     20 N5         -4.4767   -4.7844   -8.1620 N.pl3     1 <0>        -0.6852
     21 C14        -4.8685   -3.9629   -9.2216 C.ar      1 <0>         0.1792
     22 C15        -3.9757   -3.0421   -9.7558 C.ar      1 <0>        -0.1615
     23 C16        -4.3664   -2.2315  -10.8033 C.ar      1 <0>        -0.0879
     24 C17        -5.6447   -2.3354  -11.3206 C.ar      1 <0>        -0.1543
     25 C18        -6.5360   -3.2508  -10.7913 C.ar      1 <0>        -0.0880
     26 C19        -6.1502   -4.0686   -9.7475 C.ar      1 <0>        -0.1672
     27 O2          2.4617    0.5765   -4.0211 O.2       1 <0>        -0.5155
     28 H1          1.4629    1.8007   -0.2387 H         1 <0>         0.0763
     29 H2         -0.1114    1.8279   -1.0688 H         1 <0>         0.0563
     30 H3         -0.0428    1.8372    0.7099 H         1 <0>         0.0674
     31 H4         -0.6365   -0.4130   -0.1462 H         1 <0>         0.0891
     32 H5          0.6336   -0.2847    1.9427 H         1 <0>         0.0649
     33 H6          1.2102   -1.6771    0.9957 H         1 <0>         0.0570
     34 H7          3.0170   -0.3328    1.7919 H         1 <0>         0.3864
     35 H8          1.9687   -0.8295   -1.3980 H         1 <0>         0.4210
     36 H9         -1.4666   -0.4564   -3.3863 H         1 <0>         0.4159
     37 H10         1.7154   -1.9558   -3.5423 H         1 <0>         0.1537
     38 H11        -2.4518   -1.4180   -5.8733 H         1 <0>         0.1261
     39 H12        -4.0521   -2.2515   -7.5436 H         1 <0>         0.1263
     40 H13        -2.8797   -6.2726   -6.6744 H         1 <0>         0.1250
     41 H14        -1.2689   -5.4490   -5.0094 H         1 <0>         0.1273
     42 H15        -4.8371   -5.6817   -8.0850 H         1 <0>         0.4086
     43 H16        -2.9773   -2.9602   -9.3521 H         1 <0>         0.1273
     44 H17        -3.6730   -1.5153  -11.2188 H         1 <0>         0.1238
     45 H18        -5.9478   -1.7000  -12.1396 H         1 <0>         0.1209
     46 H19        -7.5336   -3.3294  -11.1976 H         1 <0>         0.1232
     47 H20        -6.8453   -4.7863   -9.3376 H         1 <0>         0.1220
     48 H21        -1.3688   -0.0326   -1.7635 H         1 <0>         0.4045
     49 H22         1.5173    0.8666   -6.3633 H         1 <0>         0.4149
@<TRIPOS>BOND
     1    1    2 1
     2    1   28 1
     3    1   29 1
     4    1   30 1
     5    2    3 1
     6    2    5 1
     7    2   31 1
     8    3    4 1
     9    3   32 1
    10    3   33 1
    11    4   34 1
    12    5    6 1
    13    5   35 1
    14    6    7 2
    15    6    8 1
    16    7   36 1
    17    7   48 1
    18    8    9 1
    19    8   37 1
    20    8   12 1
    21    9   10 am
    22    9   27 2
    23   10   11 1
    24   10   49 1
    25   11   12 1
    26   12   13 2
    27   13   14 1
    28   14   19 ar
    29   14   15 ar
    30   15   16 ar
    31   15   38 1
    32   16   17 ar
    33   16   39 1
    34   17   18 ar
    35   17   20 1
    36   18   19 ar
    37   18   40 1
    38   19   41 1
    39   20   21 1
    40   20   42 1
    41   21   26 ar
    42   21   22 ar
    43   22   23 ar
    44   22   43 1
    45   23   24 ar
    46   23   44 1
    47   24   25 ar
    48   24   45 1
    49   25   26 ar
    50   25   46 1
    51   26   47 1
@<TRIPOS>MOLECULE
CHEMBL253116__3
   47    49     0     0     0
SMALL
USER_CHARGES

@<TRIPOS>ATOM
      1 C1         -1.7642    3.6836    0.6982 C.3       1 <0>        -0.1594
      2 C2         -1.1715    2.2825    0.8605 C.3       1 <0>         0.1311
      3 C3         -0.0471    2.0832   -0.1577 C.3       1 <0>         0.0699
      4 O1         -0.5433    2.3432   -1.4723 O.3       1 <0>        -0.5578
      5 N1         -2.2169    1.2810    0.6358 N.pl3     1 <0>        -0.6694
      6 C4         -3.0383    0.9100    1.6609 C.2       1 <0>         0.5941
      7 N2         -2.8472    1.4266    2.9097 N.pl3     1 <0>        -0.8589
      8 C5         -4.0746    0.0016    1.4318 C.2       1 <0>        -0.4260
      9 C6         -4.6408   -0.2493    0.1246 C.2       1 <0>         0.4335
     10 N3         -5.6039   -1.1138    0.0045 N.2       1 <0>        -0.5928
     11 S1         -5.8940   -1.7020    1.5430 S.3       1 <0>         0.0466
     12 C7         -4.6792   -0.7785    2.4626 C.2       1 <0>         0.2733
     13 N4         -4.4086   -0.8078    3.7626 N.2       1 <0>        -0.6044
     14 C8         -3.1305   -0.6040    4.1989 C.ar      1 <0>         0.2002
     15 C9         -2.8781    0.3065    5.2295 C.ar      1 <0>        -0.1468
     16 C10        -1.5864    0.5086    5.6670 C.ar      1 <0>        -0.1313
     17 C11        -0.5359   -0.1908    5.0850 C.ar      1 <0>         0.0989
     18 C12        -0.7820   -1.0966    4.0600 C.ar      1 <0>        -0.1263
     19 C13        -2.0711   -1.3097    3.6202 C.ar      1 <0>        -0.1633
     20 N5          0.7747    0.0181    5.5324 N.pl3     1 <0>        -0.6874
     21 C14         1.0090    0.3922    6.8574 C.ar      1 <0>         0.1980
     22 C15         0.1351   -0.0108    7.8597 C.ar      1 <0>        -0.1675
     23 C16         0.3698    0.3610    9.1688 C.ar      1 <0>        -0.0855
     24 C17         1.4730    1.1335    9.4827 C.ar      1 <0>        -0.1674
     25 C18         2.3449    1.5364    8.4877 C.ar      1 <0>        -0.0866
     26 C19         2.1195    1.1635    7.1773 C.ar      1 <0>        -0.1807
     27 O2         -4.1717    0.4113   -0.9649 O.3       1 <0>        -0.7175
     28 H1         -0.9864    4.4287    0.8654 H         1 <0>         0.0599
     29 H2         -2.1631    3.7948   -0.3101 H         1 <0>         0.0746
     30 H3         -2.5653    3.8256    1.4236 H         1 <0>         0.0576
     31 H4         -0.7726    2.1713    1.8688 H         1 <0>         0.0841
     32 H5          0.7701    2.7695    0.0645 H         1 <0>         0.0585
     33 H6          0.3153    1.0567   -0.1025 H         1 <0>         0.0523
     34 H7          0.1172    2.2359   -2.1704 H         1 <0>         0.3794
     35 H8         -2.3254    0.8816   -0.2415 H         1 <0>         0.4389
     36 H9         -3.6069    1.7318    3.4299 H         1 <0>         0.4179
     37 H10        -3.6938    0.8510    5.6819 H         1 <0>         0.1187
     38 H11        -1.3906    1.2117    6.4630 H         1 <0>         0.1160
     39 H12         0.0375   -1.6376    3.6103 H         1 <0>         0.1098
     40 H13        -2.2619   -2.0170    2.8267 H         1 <0>         0.1137
     41 H14         1.5197   -0.0971    4.9220 H         1 <0>         0.4020
     42 H15        -0.7269   -0.6138    7.6152 H         1 <0>         0.1277
     43 H16        -0.3093    0.0484    9.9482 H         1 <0>         0.1202
     44 H17         1.6539    1.4231   10.5073 H         1 <0>         0.1164
     45 H18         3.2055    2.1397    8.7364 H         1 <0>         0.1186
     46 H19         2.8032    1.4748    6.4014 H         1 <0>         0.1182
     47 H20        -1.9516    1.4886    3.2771 H         1 <0>         0.3991
@<TRIPOS>BOND
     1    1    2 1
     2    1   28 1
     3    1   29 1
     4    1   30 1
     5    2    3 1
     6    2    5 1
     7    2   31 1
     8    3    4 1
     9    3   32 1
    10    3   33 1
    11    4   34 1
    12    5    6 1
    13    5   35 1
    14    6    7 1
    15    6    8 2
    16    7   36 1
    17    7   47 1
    18    8    9 1
    19    8   12 1
    20    9   10 2
    21    9   27 1
    22   10   11 1
    23   11   12 1
    24   12   13 2
    25   13   14 1
    26   14   19 ar
    27   14   15 ar
    28   15   16 ar
    29   15   37 1
    30   16   17 ar
    31   16   38 1
    32   17   18 ar
    33   17   20 1
    34   18   19 ar
    35   18   39 1
    36   19   40 1
    37   20   21 1
    38   20   41 1
    39   21   26 ar
    40   21   22 ar
    41   22   23 ar
    42   22   42 1
    43   23   24 ar
    44   23   43 1
    45   24   25 ar
    46   24   44 1
    47   25   26 ar
    48   25   45 1
    49   26   46 1
@<TRIPOS>MOLECULE
CHEMBL253116__4
   47    49     0     0     0
SMALL
USER_CHARGES

@<TRIPOS>ATOM
      1 C1         -0.0499    1.4689    0.0547 C.3       1 <0>        -0.1666
      2 C2         -0.0013   -0.0600    0.0230 C.3       1 <0>         0.1248
      3 C3         -1.4267   -0.6158    0.0333 C.3       1 <0>         0.0729
      4 O1         -2.1677   -0.0468   -1.0480 O.3       1 <0>        -0.5597
      5 N1          0.6863   -0.5016   -1.1928 N.pl3     1 <0>        -0.6853
      6 C4          2.0484   -0.5884   -1.2133 C.2       1 <0>         0.5915
      7 N2          2.7756   -0.1627   -0.1395 N.pl3     1 <0>        -0.8377
      8 C5          2.6981   -1.1129   -2.3333 C.2       1 <0>        -0.4075
      9 C6          2.0168   -1.4572   -3.5620 C.2       1 <0>         0.4396
     10 N3          2.7026   -1.9397   -4.5551 N.2       1 <0>        -0.5895
     11 S1          4.2901   -2.0077   -4.0332 S.3       1 <0>        -0.0199
     12 C7          4.1030   -1.3583   -2.3847 C.2       1 <0>         0.2623
     13 N4          5.0259   -1.1569   -1.4512 N.2       1 <0>        -0.5939
     14 C8          6.3326   -1.4625   -1.7055 C.ar      1 <0>         0.1385
     15 C9          6.6617   -2.6691   -2.3307 C.ar      1 <0>        -0.1398
     16 C10         7.9820   -2.9732   -2.5858 C.ar      1 <0>        -0.1252
     17 C11         8.9852   -2.0827   -2.2222 C.ar      1 <0>         0.1222
     18 C12         8.6628   -0.8824   -1.6002 C.ar      1 <0>        -0.1380
     19 C13         7.3449   -0.5671   -1.3467 C.ar      1 <0>        -0.1149
     20 N5         10.3251   -2.3961   -2.4831 N.pl3     1 <0>        -0.6875
     21 C14        10.6615   -3.1300   -3.6227 C.ar      1 <0>         0.1974
     22 C15         9.8303   -3.1076   -4.7359 C.ar      1 <0>        -0.1688
     23 C16        10.1661   -3.8344   -5.8610 C.ar      1 <0>        -0.0816
     24 C17        11.3280   -4.5842   -5.8806 C.ar      1 <0>        -0.1689
     25 C18        12.1576   -4.6089   -4.7744 C.ar      1 <0>        -0.0867
     26 C19        11.8310   -3.8798   -3.6480 C.ar      1 <0>        -0.1839
     27 O2          0.6757   -1.2788   -3.6765 O.3       1 <0>        -0.7176
     28 H1          0.9656    1.8649    0.0474 H         1 <0>         0.0564
     29 H2         -0.5884    1.8335   -0.8200 H         1 <0>         0.0753
     30 H3         -0.5615    1.7975    0.9593 H         1 <0>         0.0630
     31 H4          0.5372   -0.4246    0.8978 H         1 <0>         0.0840
     32 H5         -1.3949   -1.6996   -0.0787 H         1 <0>         0.0552
     33 H6         -1.9088   -0.3621    0.9774 H         1 <0>         0.0581
     34 H7         -3.0826   -0.3549   -1.1030 H         1 <0>         0.3800
     35 H8          0.1737   -0.7324   -1.9833 H         1 <0>         0.4425
     36 H9          2.3244    0.2015    0.6381 H         1 <0>         0.3894
     37 H10         5.8828   -3.3620   -2.6129 H         1 <0>         0.1275
     38 H11         8.2371   -3.9050   -3.0687 H         1 <0>         0.1170
     39 H12         9.4457   -0.1936   -1.3191 H         1 <0>         0.1148
     40 H13         7.0950    0.3678   -0.8673 H         1 <0>         0.1192
     41 H14        11.0194   -2.1035   -1.8722 H         1 <0>         0.4031
     42 H15         8.9226   -2.5226   -4.7212 H         1 <0>         0.1304
     43 H16         9.5203   -3.8177   -6.7265 H         1 <0>         0.1224
     44 H17        11.5880   -5.1520   -6.7617 H         1 <0>         0.1164
     45 H18        13.0643   -5.1954   -4.7931 H         1 <0>         0.1180
     46 H19        12.4816   -3.8960   -2.7861 H         1 <0>         0.1177
     47 H20         3.7435   -0.2243   -0.1541 H         1 <0>         0.4336
@<TRIPOS>BOND
     1    1    2 1
     2    1   28 1
     3    1   29 1
     4    1   30 1
     5    2    3 1
     6    2    5 1
     7    2   31 1
     8    3    4 1
     9    3   32 1
    10    3   33 1
    11    4   34 1
    12    5    6 1
    13    5   35 1
    14    6    7 1
    15    6    8 2
    16    7   36 1
    17    7   47 1
    18    8    9 1
    19    8   12 1
    20    9   10 2
    21    9   27 1
    22   10   11 1
    23   11   12 1
    24   12   13 2
    25   13   14 1
    26   14   19 ar
    27   14   15 ar
    28   15   16 ar
    29   15   37 1
    30   16   17 ar
    31   16   38 1
    32   17   18 ar
    33   17   20 1
    34   18   19 ar
    35   18   39 1
    36   19   40 1
    37   20   21 1
    38   20   41 1
    39   21   26 ar
    40   21   22 ar
    41   22   23 ar
    42   22   42 1
    43   23   24 ar
    44   23   43 1
    45   24   25 ar
    46   24   44 1
    47   25   26 ar
    48   25   45 1
    49   26   46 1
@<TRIPOS>MOLECULE
CHEMBL253116__5
   49    51     0     0     0
SMALL
NO_CHARGES

@<TRIPOS>ATOM
      1 C1         -0.8648    2.1562    0.0982 C.3       1 <0>        -0.1639
      2 C2         -1.0892    0.6519   -0.0680 C.3       1 <0>         0.1364
      3 C3         -0.6776    0.2277   -1.4792 C.3       1 <0>         0.0677
      4 O1          0.6705    0.6333   -1.7244 O.3       1 <0>        -0.5676
      5 N1         -0.2812   -0.0739    0.9152 N.pl3     1 <0>        -0.6653
      6 C4         -0.7619   -0.2752    2.1822 C.cat     1 <0>         0.3259
      7 N2         -1.9288    0.1754    2.5104 N.pl3     1 <0>        -0.7549
      8 C5          0.0693   -1.0218    3.1936 C.3       1 <0>        -0.0675
      9 C6         -0.1807   -2.4865    3.0500 C.2       1 <0>         0.5003
     10 N3         -0.6632   -3.1447    4.1052 N.am      1 <0>        -0.7247
     11 S1         -0.8539   -2.0536    5.3529 S.3       1 <0>         0.1490
     12 C7         -0.2950   -0.5466    4.5879 C.2       1 <0>         0.0804
     13 N4         -0.2179    0.6542    5.0946 N.2       1 <0>        -0.4348
     14 C8          0.3502    1.6694    4.3687 C.ar      1 <0>         0.0694
     15 C9          1.6092    1.4967    3.7908 C.ar      1 <0>        -0.1298
     16 C10         2.1773    2.5193    3.0612 C.ar      1 <0>        -0.1363
     17 C11         1.4982    3.7213    2.9010 C.ar      1 <0>         0.1485
     18 C12         0.2445    3.8966    3.4750 C.ar      1 <0>        -0.1370
     19 C13        -0.3318    2.8760    4.2010 C.ar      1 <0>        -0.0930
     20 N5          2.0778    4.7570    2.1610 N.pl3     1 <0>        -0.6844
     21 C14         1.7994    6.0870    2.4844 C.ar      1 <0>         0.1874
     22 C15         1.4549    6.4297    3.7860 C.ar      1 <0>        -0.1687
     23 C16         1.1803    7.7456    4.1022 C.ar      1 <0>        -0.0848
     24 C17         1.2478    8.7218    3.1250 C.ar      1 <0>        -0.1599
     25 C18         1.5904    8.3843    1.8284 C.ar      1 <0>        -0.0848
     26 C19         1.8718    7.0713    1.5064 C.ar      1 <0>        -0.1742
     27 O2          0.0475   -3.0606    2.0053 O.2       1 <0>        -0.5273
     28 H1          0.1893    2.3857   -0.0573 H         1 <0>         0.0757
     29 H2         -1.4660    2.6962   -0.6333 H         1 <0>         0.0671
     30 H3         -1.1580    2.4584    1.1036 H         1 <0>         0.0618
     31 H4         -2.1433    0.4224    0.0875 H         1 <0>         0.0881
     32 H5         -0.7532   -0.8559   -1.5694 H         1 <0>         0.0574
     33 H6         -1.3372    0.6998   -2.2074 H         1 <0>         0.0658
     34 H7          0.9989    0.3965   -2.6026 H         1 <0>         0.3871
     35 H8          0.5941   -0.4118    0.6691 H         1 <0>         0.4232
     36 H9         -2.2691    0.0328    3.4074 H         1 <0>         0.4256
     37 H10         1.1244   -0.8184    3.0109 H         1 <0>         0.1255
     38 H11         2.1378    0.5631    3.9155 H         1 <0>         0.1139
     39 H12         3.1513    2.3863    2.6139 H         1 <0>         0.1180
     40 H13        -0.2806    4.8319    3.3486 H         1 <0>         0.1235
     41 H14        -1.3077    3.0113    4.6433 H         1 <0>         0.1231
     42 H15         2.6730    4.5516    1.4232 H         1 <0>         0.4065
     43 H16         1.4017    5.6678    4.5496 H         1 <0>         0.1261
     44 H17         0.9122    8.0126    5.1138 H         1 <0>         0.1228
     45 H18         1.0322    9.7501    3.3750 H         1 <0>         0.1201
     46 H19         1.6422    9.1492    1.0677 H         1 <0>         0.1223
     47 H20         2.1436    6.8090    0.4946 H         1 <0>         0.1204
     48 H21        -2.4638    0.6559    1.8594 H         1 <0>         0.4067
     49 H22        -0.8679   -4.0922    4.1407 H         1 <0>         0.4132
@<TRIPOS>BOND
     1    1    2 1
     2    1   28 1
     3    1   29 1
     4    1   30 1
     5    2    3 1
     6    2    5 1
     7    2   31 1
     8    3    4 1
     9    3   32 1
    10    3   33 1
    11    4   34 1
    12    5    6 1
    13    5   35 1
    14    6    7 2
    15    6    8 1
    16    7   36 1
    17    7   48 1
    18    8    9 1
    19    8   37 1
    20    8   12 1
    21    9   10 am
    22    9   27 2
    23   10   11 1
    24   10   49 1
    25   11   12 1
    26   12   13 2
    27   13   14 1
    28   14   19 ar
    29   14   15 ar
    30   15   16 ar
    31   15   38 1
    32   16   17 ar
    33   16   39 1
    34   17   18 ar
    35   17   20 1
    36   18   19 ar
    37   18   40 1
    38   19   41 1
    39   20   21 1
    40   20   42 1
    41   21   26 ar
    42   21   22 ar
    43   22   23 ar
    44   22   43 1
    45   23   24 ar
    46   23   44 1
    47   24   25 ar
    48   24   45 1
    49   25   26 ar
    50   25   46 1
    51   26   47 1
@<TRIPOS>MOLECULE
CHEMBL253116__6
   49    51     0     0     0
SMALL
NO_CHARGES

@<TRIPOS>ATOM
      1 C1          0.3196    1.3201    0.1154 C.3       1 <0>        -0.1693
      2 C2          0.3678   -0.2088    0.1479 C.3       1 <0>         0.1392
      3 C3          1.1345   -0.7210   -1.0730 C.3       1 <0>         0.0681
      4 O1          2.4261   -0.1110   -1.1147 O.3       1 <0>        -0.5689
      5 N1          1.0445   -0.6502    1.3700 N.pl3     1 <0>        -0.6710
      6 C4          0.3373   -0.7786    2.5364 C.cat     1 <0>         0.2743
      7 N2         -0.9276   -0.5102    2.5585 N.pl3     1 <0>        -0.7640
      8 C5          1.0334   -1.2327    3.7935 C.3       1 <0>        -0.0193
      9 C6          1.0459   -2.7248    3.8366 C.2       1 <0>         0.5135
     10 N3          0.4523   -3.3253    4.8693 N.am      1 <0>        -0.7189
     11 S1         -0.1675   -2.1423    5.8695 S.3       1 <0>         0.0674
     12 C7          0.3081   -0.6643    4.9991 C.2       1 <0>         0.0927
     13 N4          0.0904    0.5835    5.3157 N.2       1 <0>        -0.4282
     14 C8         -0.5943    0.8901    6.4636 C.ar      1 <0>         0.0500
     15 C9         -1.7579    0.1919    6.7917 C.ar      1 <0>        -0.1231
     16 C10        -2.4437    0.5024    7.9468 C.ar      1 <0>        -0.1407
     17 C11        -1.9781    1.5095    8.7839 C.ar      1 <0>         0.1640
     18 C12        -0.8200    2.2066    8.4601 C.ar      1 <0>        -0.1530
     19 C13        -0.1262    1.8972    7.3095 C.ar      1 <0>        -0.0697
     20 N5         -2.6767    1.8226    9.9544 N.pl3     1 <0>        -0.6852
     21 C14        -3.4835    0.8595   10.5649 C.ar      1 <0>         0.1793
     22 C15        -3.1350   -0.4839   10.4994 C.ar      1 <0>        -0.1615
     23 C16        -3.9349   -1.4333   11.1041 C.ar      1 <0>        -0.0880
     24 C17        -5.0817   -1.0483   11.7743 C.ar      1 <0>        -0.1543
     25 C18        -5.4316    0.2880   11.8415 C.ar      1 <0>        -0.0880
     26 C19        -4.6332    1.2433   11.2440 C.ar      1 <0>        -0.1672
     27 O2          1.5793   -3.3716    2.9591 O.2       1 <0>        -0.5191
     28 H1          1.3350    1.7160    0.1317 H         1 <0>         0.0752
     29 H2         -0.1839    1.6485   -0.7938 H         1 <0>         0.0675
     30 H3         -0.2267    1.6849    0.9852 H         1 <0>         0.0593
     31 H4         -0.6476   -0.6048    0.1316 H         1 <0>         0.0877
     32 H5          1.2459   -1.8031   -1.0045 H         1 <0>         0.0582
     33 H6          0.5843   -0.4690   -1.9796 H         1 <0>         0.0648
     34 H7          2.9689   -0.3901   -1.8647 H         1 <0>         0.3870
     35 H8          1.9932   -0.8515    1.3534 H         1 <0>         0.4212
     36 H9         -1.4283   -0.6012    3.3843 H         1 <0>         0.4162
     37 H10         2.0596   -0.8653    3.7877 H         1 <0>         0.1542
     38 H11        -2.1206   -0.5903    6.1413 H         1 <0>         0.1261
     39 H12        -3.3439   -0.0373    8.2012 H         1 <0>         0.1263
     40 H13        -0.4608    2.9886    9.1127 H         1 <0>         0.1251
     41 H14         0.7758    2.4364    7.0605 H         1 <0>         0.1275
     42 H15        -2.6009    2.7084   10.3422 H         1 <0>         0.4086
     43 H16        -2.2397   -0.7852    9.9759 H         1 <0>         0.1273
     44 H17        -3.6649   -2.4777   11.0533 H         1 <0>         0.1238
     45 H18        -5.7057   -1.7929   12.2461 H         1 <0>         0.1209
     46 H19        -6.3279    0.5852   12.3657 H         1 <0>         0.1232
     47 H20        -4.9047    2.2871   11.3006 H         1 <0>         0.1220
     48 H21        -1.3757   -0.2180    1.7494 H         1 <0>         0.4045
     49 H22         0.3911   -4.2826    5.0134 H         1 <0>         0.4147
@<TRIPOS>BOND
     1    1    2 1
     2    1   28 1
     3    1   29 1
     4    1   30 1
     5    2    3 1
     6    2    5 1
     7    2   31 1
     8    3    4 1
     9    3   32 1
    10    3   33 1
    11    4   34 1
    12    5    6 1
    13    5   35 1
    14    6    7 2
    15    6    8 1
    16    7   36 1
    17    7   48 1
    18    8    9 1
    19    8   37 1
    20    8   12 1
    21    9   10 am
    22    9   27 2
    23   10   11 1
    24   10   49 1
    25   11   12 1
    26   12   13 2
    27   13   14 1
    28   14   19 ar
    29   14   15 ar
    30   15   16 ar
    31   15   38 1
    32   16   17 ar
    33   16   39 1
    34   17   18 ar
    35   17   20 1
    36   18   19 ar
    37   18   40 1
    38   19   41 1
    39   20   21 1
    40   20   42 1
    41   21   26 ar
    42   21   22 ar
    43   22   23 ar
    44   22   43 1
    45   23   24 ar
    46   23   44 1
    47   24   25 ar
    48   24   45 1
    49   25   26 ar
    50   25   46 1
    51   26   47 1
@<TRIPOS>MOLECULE
CHEMBL253116__7
   47    49     0     0     0
SMALL
NO_CHARGES

@<TRIPOS>ATOM
      1 C1          0.9651   -1.0296    1.6961 C.3       1 <0>        -0.1665
      2 C2          0.9024   -2.4091    1.0375 C.3       1 <0>         0.1182
      3 C3         -0.5306   -2.9411    1.1033 C.3       1 <0>         0.0680
      4 O1         -1.4197   -1.9886    0.5164 O.3       1 <0>        -0.5677
      5 N1          1.3194   -2.3012   -0.3627 N.pl3     1 <0>        -0.6411
      6 C4          2.6446   -2.3516   -0.6860 C.2       1 <0>         0.6133
      7 N2          3.5858   -2.4137    0.3005 N.pl3     1 <0>        -0.8530
      8 C5          3.0375   -2.3397   -2.0265 C.2       1 <0>        -0.4161
      9 C6          2.1650   -2.7176   -3.1167 C.2       1 <0>         0.4188
     10 N3          2.6157   -2.6755   -4.3351 N.2       1 <0>        -0.4771
     11 S1          4.1997   -2.1501   -4.2261 S.3       1 <0>         0.4291
     12 C7          4.3389   -1.9475   -2.4615 C.2       1 <0>         0.1486
     13 N4          5.3783   -1.5405   -1.7418 N.2       1 <0>        -0.4113
     14 C8          5.1772   -0.8254   -0.5957 C.ar      1 <0>         0.1079
     15 C9          5.8323   -1.1923    0.5838 C.ar      1 <0>        -0.0838
     16 C10         5.6268   -0.4673    1.7382 C.ar      1 <0>        -0.1532
     17 C11         4.7696    0.6267    1.7309 C.ar      1 <0>         0.1809
     18 C12         4.1159    0.9948    0.5610 C.ar      1 <0>        -0.1483
     19 C13         4.3202    0.2794   -0.5997 C.ar      1 <0>        -0.1049
     20 N5          4.5634    1.3600    2.9062 N.pl3     1 <0>        -0.6744
     21 C14         5.5746    1.4390    3.8664 C.ar      1 <0>         0.1713
     22 C15         6.9076    1.3645    3.4816 C.ar      1 <0>        -0.1608
     23 C16         7.9048    1.4429    4.4337 C.ar      1 <0>        -0.0866
     24 C17         7.5779    1.5954    5.7688 C.ar      1 <0>        -0.1474
     25 C18         6.2521    1.6699    6.1553 C.ar      1 <0>        -0.0865
     26 C19         5.2499    1.5980    5.2080 C.ar      1 <0>        -0.1624
     27 O2          0.8896   -3.1123   -2.8699 O.3       1 <0>        -0.6039
     28 H1          1.9860   -0.6506    1.6492 H         1 <0>         0.0538
     29 H2          0.2990   -0.3454    1.1703 H         1 <0>         0.0796
     30 H3          0.6548   -1.1099    2.7379 H         1 <0>         0.0763
     31 H4          1.5684   -3.0933    1.5632 H         1 <0>         0.1018
     32 H5         -0.5943   -3.8822    0.5571 H         1 <0>         0.0619
     33 H6         -0.8098   -3.1054    2.1440 H         1 <0>         0.0687
     34 H7         -2.3477   -2.2604    0.5234 H         1 <0>         0.3898
     35 H8          0.6538   -2.1939   -1.0601 H         1 <0>         0.4433
     36 H9          4.3305   -3.0303    0.2222 H         1 <0>         0.4249
     37 H10         6.4981   -2.0427    0.5906 H         1 <0>         0.1398
     38 H11         6.1323   -0.7500    2.6497 H         1 <0>         0.1379
     39 H12         3.4504    1.8454    0.5599 H         1 <0>         0.1318
     40 H13         3.8153    0.5689   -1.5095 H         1 <0>         0.1295
     41 H14         3.7184    1.8131    3.0533 H         1 <0>         0.4118
     42 H15         7.1636    1.2451    2.4392 H         1 <0>         0.1272
     43 H16         8.9411    1.3847    4.1354 H         1 <0>         0.1263
     44 H17         8.3597    1.6561    6.5114 H         1 <0>         0.1238
     45 H18         6.0004    1.7890    7.1988 H         1 <0>         0.1261
     46 H19         4.2149    1.6607    5.5100 H         1 <0>         0.1238
     47 H20         3.5101   -1.8413    1.0799 H         1 <0>         0.4109
@<TRIPOS>BOND
     1    1    2 1
     2    1   28 1
     3    1   29 1
     4    1   30 1
     5    2    3 1
     6    2    5 1
     7    2   31 1
     8    3    4 1
     9    3   32 1
    10    3   33 1
    11    4   34 1
    12    5    6 1
    13    5   35 1
    14    6    7 1
    15    6    8 2
    16    7   36 1
    17    7   47 1
    18    8    9 1
    19    8   12 1
    20    9   10 2
    21    9   27 1
    22   10   11 1
    23   11   12 1
    24   12   13 2
    25   13   14 1
    26   14   19 ar
    27   14   15 ar
    28   15   16 ar
    29   15   37 1
    30   16   17 ar
    31   16   38 1
    32   17   18 ar
    33   17   20 1
    34   18   19 ar
    35   18   39 1
    36   19   40 1
    37   20   21 1
    38   20   41 1
    39   21   26 ar
    40   21   22 ar
    41   22   23 ar
    42   22   42 1
    43   23   24 ar
    44   23   43 1
    45   24   25 ar
    46   24   44 1
    47   25   26 ar
    48   25   45 1
    49   26   46 1
@<TRIPOS>MOLECULE
CHEMBL485285
   70    75     0     0     0
SMALL
USER_CHARGES

@<TRIPOS>ATOM
      1 C1         -0.1093    1.5049   -0.0255 C.3       1 <0>        -0.1268
      2 C2         -0.0685   -0.0016   -0.0278 C.ar      1 <0>        -0.0334
      3 C3         -0.0675   -0.6889   -1.2262 C.ar      1 <0>        -0.1231
      4 C4         -0.0302   -2.0686   -1.2371 C.ar      1 <0>        -0.0681
      5 C5          0.0071   -2.7780   -0.0344 C.ar      1 <0>        -0.1382
      6 C6          0.0066   -2.0890    1.1771 C.ar      1 <0>        -0.0316
      7 C7         -0.0261   -0.6980    1.1797 C.ar      1 <0>        -0.0766
      8 C8         -0.0212    0.0428    2.4648 C.ar      1 <0>         0.0313
      9 C9          0.8803    1.0946    2.6582 C.ar      1 <0>        -0.1277
     10 C10         0.8947    1.7833    3.8350 C.ar      1 <0>        -0.0408
     11 C11         0.0041    1.4390    4.8565 C.ar      1 <0>        -0.1996
     12 C12        -0.9057    0.3838    4.6710 C.ar      1 <0>         0.0946
     13 C13        -0.9160   -0.3078    3.4683 C.ar      1 <0>        -0.1107
     14 O1         -1.6280    0.2789    5.8052 O.3       1 <0>        -0.0767
     15 N1         -1.1948    1.2584    6.7276 N.2       1 <0>        -0.2789
     16 C14        -0.2361    1.9596    6.2049 C.2       1 <0>         0.1236
     17 C15         0.4962    3.0999    6.8641 C.3       1 <0>        -0.0232
     18 C16         1.1713    2.6024    8.1455 C.3       1 <0>        -0.1458
     19 C17         1.8458    3.7809    8.8508 C.3       1 <0>        -0.0037
     20 N2          0.8395    4.7949    9.1882 N.4       1 <0>        -0.5076
     21 C18         0.2386    5.3282    7.9598 C.3       1 <0>        -0.0037
     22 C19        -0.4978    4.2092    7.2202 C.3       1 <0>        -0.1454
     23 C20         0.0465   -4.2557   -0.0465 C.2       1 <0>         0.5604
     24 O2          0.0789   -4.8715    1.0011 O.2       1 <0>        -0.5099
     25 N3          0.0464   -4.9202   -1.2191 N.am      1 <0>        -0.6678
     26 C21         0.1783   -6.3123   -1.2338 C.ar      1 <0>         0.1877
     27 C22        -0.3952   -7.0761   -0.2244 C.ar      1 <0>        -0.1748
     28 C23        -0.2654   -8.4513   -0.2381 C.ar      1 <0>        -0.0522
     29 C24         0.4351   -9.0721   -1.2546 C.ar      1 <0>        -0.2083
     30 C25         1.0113   -8.3143   -2.2666 C.ar      1 <0>         0.2382
     31 C26         0.8770   -6.9328   -2.2593 C.ar      1 <0>        -0.2242
     32 N4          1.7196   -8.9425   -3.2935 N.pl3     1 <0>        -0.6319
     33 C27         2.4431   -8.1565   -4.3056 C.3       1 <0>         0.0866
     34 C28         3.8745   -8.6960   -4.4044 C.3       1 <0>         0.0455
     35 O3          3.8314  -10.1101   -4.6103 O.3       1 <0>        -0.3780
     36 C29         3.2294  -10.8396   -3.5382 C.3       1 <0>         0.0450
     37 C30         1.7696  -10.4098   -3.3918 C.3       1 <0>         0.0855
     38 H1          0.9079    1.8959   -0.0449 H         1 <0>         0.0804
     39 H2         -0.6501    1.8550   -0.9047 H         1 <0>         0.0762
     40 H3         -0.6154    1.8533    0.8749 H         1 <0>         0.0723
     41 H4         -0.0962   -0.1444   -2.1584 H         1 <0>         0.1384
     42 H5         -0.0303   -2.6006   -2.1770 H         1 <0>         0.1314
     43 H6          0.0350   -2.6325    2.1100 H         1 <0>         0.1422
     44 H7          1.5693    1.3627    1.8709 H         1 <0>         0.1427
     45 H8          1.5939    2.5940    3.9782 H         1 <0>         0.1360
     46 H9         -1.6135   -1.1178    3.3143 H         1 <0>         0.1467
     47 H10         1.2505    3.4916    6.1817 H         1 <0>         0.1167
     48 H11         0.4223    2.1638    8.8049 H         1 <0>         0.0992
     49 H12         1.9204    1.8515    7.8942 H         1 <0>         0.1194
     50 H13         2.3277    3.4302    9.7634 H         1 <0>         0.1400
     51 H14         2.5947    4.2185    8.1907 H         1 <0>         0.1353
     52 H15         0.1204    4.3766    9.7591 H         1 <0>         0.4304
     53 H16        -0.4662    6.1197    8.2146 H         1 <0>         0.1399
     54 H17         1.0217    5.7328    7.3187 H         1 <0>         0.1353
     55 H18        -0.9418    4.6068    6.3076 H         1 <0>         0.1192
     56 H19        -1.2814    3.8040    7.8604 H         1 <0>         0.0990
     57 H20        -0.0451   -4.4328   -2.0527 H         1 <0>         0.4093
     58 H21        -0.9427   -6.5939    0.5719 H         1 <0>         0.1351
     59 H22        -0.7120   -9.0425    0.5476 H         1 <0>         0.1269
     60 H23         0.5350  -10.1474   -1.2622 H         1 <0>         0.1246
     61 H24         1.3196   -6.3418   -3.0475 H         1 <0>         0.1249
     62 H25         1.9463   -8.2548   -5.2708 H         1 <0>         0.0722
     63 H26         2.4657   -7.1079   -4.0089 H         1 <0>         0.0903
     64 H27         4.3855   -8.2216   -5.2422 H         1 <0>         0.1056
     65 H28         4.4100   -8.4789   -3.4802 H         1 <0>         0.0554
     66 H29         3.2762  -11.9072   -3.7528 H         1 <0>         0.1072
     67 H30         3.7626  -10.6302   -2.6108 H         1 <0>         0.0558
     68 H31         1.3463  -10.8527   -2.4902 H         1 <0>         0.0948
     69 H32         1.2038  -10.7389   -4.2634 H         1 <0>         0.0728
     70 H33         1.2784    5.5455    9.7001 H         1 <0>         0.4349
@<TRIPOS>BOND
     1    1    2 1
     2    1   38 1
     3    1   39 1
     4    1   40 1
     5    2    7 ar
     6    2    3 ar
     7    3    4 ar
     8    3   41 1
     9    4    5 ar
    10    4   42 1
    11    5    6 ar
    12    5   23 1
    13    6    7 ar
    14    6   43 1
    15    7    8 1
    16    8   13 ar
    17    8    9 ar
    18    9   10 ar
    19    9   44 1
    20   10   11 ar
    21   10   45 1
    22   11   16 1
    23   11   12 ar
    24   12   13 ar
    25   12   14 1
    26   13   46 1
    27   14   15 1
    28   15   16 2
    29   16   17 1
    30   17   22 1
    31   17   18 1
    32   17   47 1
    33   18   19 1
    34   18   48 1
    35   18   49 1
    36   19   20 1
    37   19   50 1
    38   19   51 1
    39   20   21 1
    40   20   52 1
    41   20   70 1
    42   21   22 1
    43   21   53 1
    44   21   54 1
    45   22   55 1
    46   22   56 1
    47   23   24 2
    48   23   25 am
    49   25   26 1
    50   25   57 1
    51   26   31 ar
    52   26   27 ar
    53   27   28 ar
    54   27   58 1
    55   28   29 ar
    56   28   59 1
    57   29   30 ar
    58   29   60 1
    59   30   31 ar
    60   30   32 1
    61   31   61 1
    62   32   37 1
    63   32   33 1
    64   33   34 1
    65   33   62 1
    66   33   63 1
    67   34   35 1
    68   34   64 1
    69   34   65 1
    70   35   36 1
    71   36   37 1
    72   36   66 1
    73   36   67 1
    74   37   68 1
    75   37   69 1
@<TRIPOS>MOLECULE
CHEMBL404939
   28    30     0     0     0
SMALL
USER_CHARGES

@<TRIPOS>ATOM
      1 C1          0.0364    1.3810    0.4940 C.ar      1 <0>        -0.0916
      2 C2          1.1922    2.0973    0.2492 C.ar      1 <0>        -0.0919
      3 C3          2.3863    1.4394   -0.0029 C.ar      1 <0>        -0.0572
      4 C4          2.4217    0.0508   -0.0090 C.ar      1 <0>        -0.1190
      5 C5          1.2455   -0.6783    0.2407 C.ar      1 <0>        -0.1183
      6 C6          0.0556   -0.0050    0.4913 C.ar      1 <0>        -0.0573
      7 C7          1.2925   -2.1563    0.2327 C.2       1 <0>         0.4346
      8 O1          0.2849   -2.8001    0.4462 O.2       1 <0>        -0.3975
      9 C8          2.5731   -2.8470   -0.0370 C.2       1 <0>         0.0921
     10 C9          3.7002   -2.1419   -0.2758 C.2       1 <0>        -0.0560
     11 C10         3.6846   -0.6735   -0.2750 C.2       1 <0>         0.4340
     12 O2          4.7076   -0.0537   -0.4926 O.2       1 <0>        -0.3893
     13 Cl1         5.1865   -2.9826   -0.5884 Cl        1 <0>         0.0015
     14 N1          2.6167   -4.2372   -0.0444 N.am      1 <0>        -0.5311
     15 C11         3.2888   -4.9457    0.8714 C.2       1 <0>         0.5246
     16 O3          3.9233   -4.4795    1.7929 O.2       1 <0>        -0.4566
     17 C12         3.1305   -6.4209    0.5740 C.3       1 <0>        -0.1495
     18 C13         2.2409   -6.4422   -0.6858 C.3       1 <0>        -0.1500
     19 C14         1.9855   -4.9770   -0.9644 C.2       1 <0>         0.5299
     20 O4          1.3174   -4.5420   -1.8775 O.2       1 <0>        -0.4584
     21 H1         -0.8871    1.9044    0.6932 H         1 <0>         0.1446
     22 H2          1.1652    3.1769    0.2538 H         1 <0>         0.1448
     23 H3          3.2863    2.0050   -0.1943 H         1 <0>         0.1496
     24 H4         -0.8508   -0.5598    0.6836 H         1 <0>         0.1483
     25 H5          4.0988   -6.8767    0.3675 H         1 <0>         0.1296
     26 H6          2.6352   -6.9281    1.4019 H         1 <0>         0.1300
     27 H7          2.7667   -6.9086   -1.5188 H         1 <0>         0.1299
     28 H8          1.3031   -6.9601   -0.4844 H         1 <0>         0.1301
@<TRIPOS>BOND
     1    1    6 ar
     2    1    2 ar
     3    1   21 1
     4    2    3 ar
     5    2   22 1
     6    3    4 ar
     7    3   23 1
     8    4   11 1
     9    4    5 ar
    10    5    6 ar
    11    5    7 1
    12    6   24 1
    13    7    8 2
    14    7    9 1
    15    9   10 2
    16    9   14 1
    17   10   11 1
    18   10   13 1
    19   11   12 2
    20   14   19 am
    21   14   15 am
    22   15   16 2
    23   15   17 1
    24   17   18 1
    25   17   25 1
    26   17   26 1
    27   18   19 1
    28   18   27 1
    29   18   28 1
    30   19   20 2
@<TRIPOS>MOLECULE
CHEMBL440356
   20    21     0     0     0
SMALL
USER_CHARGES

@<TRIPOS>ATOM
      1 C1         -0.0163    1.3532    0.0095 C.2       1 <0>        -0.0974
      2 C2          1.3149    1.7871   -0.0009 C.2       1 <0>        -0.1950
      3 C3          2.1132    0.6351   -0.0540 C.2       1 <0>         0.0127
      4 N1          1.2937   -0.4372   -0.0182 N.pl3     1 <0>        -0.4785
      5 H1          1.5780   -1.3646   -0.0088 H         1 <0>         0.4321
      6 C4          0.0021   -0.0041    0.0020 C.2       1 <0>         0.0135
      7 Br1        -1.5253   -1.1188    0.0179 Br        1 <0>         0.0270
      8 C5          3.5791    0.7339   -0.1876 C.2       1 <0>         0.5955
      9 O1          4.1937    0.0111   -0.9487 O.2       1 <0>        -0.5104
     10 N2          4.2163    1.6630    0.5711 N.am      1 <0>        -0.7200
     11 C6          3.5481    2.2825    1.7054 C.3       1 <0>         0.1136
     12 C7          2.6829    3.4846    1.3154 C.3       1 <0>        -0.1822
     13 C8          1.8820    3.1413    0.0742 C.2       1 <0>         0.4302
     14 O2          1.7169    3.9477   -0.8163 O.2       1 <0>        -0.4312
     15 H2         -0.8945    1.9816    0.0252 H         1 <0>         0.1640
     16 H3          5.1273    1.9160    0.3545 H         1 <0>         0.4147
     17 H4          2.9152    1.5378    2.1881 H         1 <0>         0.0845
     18 H5          4.3032    2.6118    2.4192 H         1 <0>         0.1021
     19 H6          2.0028    3.7242    2.1328 H         1 <0>         0.1228
     20 H7          3.3231    4.3425    1.1099 H         1 <0>         0.1021
@<TRIPOS>BOND
     1    1    6 2
     2    1    2 1
     3    1   15 1
     4    2   13 1
     5    2    3 2
     6    3    4 1
     7    3    8 1
     8    4    5 1
     9    4    6 1
    10    6    7 1
    11    8    9 2
    12    8   10 am
    13   10   11 1
    14   10   16 1
    15   11   12 1
    16   11   17 1
    17   11   18 1
    18   12   13 1
    19   12   19 1
    20   12   20 1
    21   13   14 2
@<TRIPOS>MOLECULE
CHEMBL34072
   52    55     0     0     0
SMALL
USER_CHARGES

@<TRIPOS>ATOM
      1 C1          1.0397   -0.3000   -3.1720 C.ar      1 <0>        -0.0634
      2 C2          2.2342    0.3969   -3.1800 C.ar      1 <0>        -0.1609
      3 C3          3.1372    0.2410   -2.1453 C.ar      1 <0>        -0.0731
      4 C4          2.8463   -0.6163   -1.0942 C.ar      1 <0>        -0.1919
      5 C5          1.6411   -1.3190   -1.0858 C.ar      1 <0>         0.2482
      6 C6          0.7413   -1.1566   -2.1287 C.ar      1 <0>        -0.1836
      7 N1          1.3414   -2.1853   -0.0290 N.pl3     1 <0>        -0.8699
      8 S1          3.9957   -0.8176    0.2260 S.3       1 <0>         0.0168
      9 C7          5.2449    0.3787   -0.1102 C.2       1 <0>         0.2153
     10 C8          6.5288   -0.0325   -0.4390 C.2       1 <0>        -0.1198
     11 C9          6.8385   -1.4290   -0.5049 C.1       1 <0>         0.2696
     12 N2          7.0842   -2.5369   -0.5572 N.1       1 <0>        -0.4233
     13 C10         7.5782    0.9725   -0.7215 C.ar      1 <0>        -0.0193
     14 C11         7.4614    1.8157   -1.8274 C.ar      1 <0>        -0.1060
     15 C12         8.4428    2.7501   -2.0853 C.ar      1 <0>        -0.1108
     16 C13         9.5416    2.8522   -1.2503 C.ar      1 <0>        -0.1038
     17 C14         9.6635    2.0191   -0.1526 C.ar      1 <0>        -0.1071
     18 C15         8.6854    1.0847    0.1200 C.ar      1 <0>        -0.0868
     19 C16        10.8637    2.1368    0.7511 C.3       1 <0>         0.1939
     20 C17        10.6169    3.2134    1.7763 C.ar      1 <0>        -0.1075
     21 C18        10.7802    4.5428    1.4339 C.ar      1 <0>        -0.1041
     22 C19        10.5561    5.5329    2.3716 C.ar      1 <0>        -0.1081
     23 C20        10.1663    5.1951    3.6591 C.ar      1 <0>         0.0525
     24 C21         9.9997    3.8589    4.0027 C.ar      1 <0>         0.0549
     25 C22        10.2222    2.8703    3.0555 C.ar      1 <0>        -0.0995
     26 O1          9.6102    3.5058    5.2581 O.3       1 <0>        -0.3060
     27 C23         9.7523    4.4992    6.2793 C.3       1 <0>         0.0198
     28 C24         9.2022    5.8261    5.7391 C.3       1 <0>         0.0201
     29 O2          9.9532    6.1810    4.5730 O.3       1 <0>        -0.3067
     30 O3         12.0142    2.4742   -0.0265 O.3       1 <0>        -0.5425
     31 N3          4.9481    1.7170   -0.0470 N.pl3     1 <0>        -0.8257
     32 H1          0.3359   -0.1713   -3.9810 H         1 <0>         0.1274
     33 H2          2.4623    1.0648   -3.9975 H         1 <0>         0.1251
     34 H3          4.0693    0.7864   -2.1552 H         1 <0>         0.1243
     35 H4         -0.1926   -1.6989   -2.1255 H         1 <0>         0.1288
     36 H5          1.9719   -2.2981    0.6995 H         1 <0>         0.3994
     37 H6          0.5030   -2.6732   -0.0247 H         1 <0>         0.4040
     38 H7          6.6047    1.7365   -2.4802 H         1 <0>         0.1254
     39 H8          8.3536    3.4032   -2.9408 H         1 <0>         0.1285
     40 H9         10.3075    3.5852   -1.4566 H         1 <0>         0.1213
     41 H10         8.7793    0.4381    0.9799 H         1 <0>         0.1262
     42 H11        11.0328    1.1859    1.2563 H         1 <0>         0.1188
     43 H12        11.0838    4.8081    0.4319 H         1 <0>         0.1291
     44 H13        10.6850    6.5707    2.1018 H         1 <0>         0.1373
     45 H14        10.0911    1.8312    3.3191 H         1 <0>         0.1365
     46 H15         9.1891    4.2005    7.1635 H         1 <0>         0.1243
     47 H16        10.8054    4.6149    6.5355 H         1 <0>         0.0793
     48 H17         8.1506    5.7087    5.4773 H         1 <0>         0.0785
     49 H18         9.3087    6.6034    6.4957 H         1 <0>         0.1242
     50 H19        11.9340    3.3108   -0.5048 H         1 <0>         0.3735
     51 H20         4.0347    2.0044    0.1081 H         1 <0>         0.4096
     52 H21         5.6516    2.3756   -0.1575 H         1 <0>         0.4071
@<TRIPOS>BOND
     1    1    6 ar
     2    1    2 ar
     3    1   32 1
     4    2    3 ar
     5    2   33 1
     6    3    4 ar
     7    3   34 1
     8    4    5 ar
     9    4    8 1
    10    5    6 ar
    11    5    7 1
    12    6   35 1
    13    7   36 1
    14    7   37 1
    15    8    9 1
    16    9   10 2
    17    9   31 1
    18   10   11 1
    19   10   13 1
    20   11   12 3
    21   13   18 ar
    22   13   14 ar
    23   14   15 ar
    24   14   38 1
    25   15   16 ar
    26   15   39 1
    27   16   17 ar
    28   16   40 1
    29   17   18 ar
    30   17   19 1
    31   18   41 1
    32   19   20 1
    33   19   30 1
    34   19   42 1
    35   20   25 ar
    36   20   21 ar
    37   21   22 ar
    38   21   43 1
    39   22   23 ar
    40   22   44 1
    41   23   29 1
    42   23   24 ar
    43   24   25 ar
    44   24   26 1
    45   25   45 1
    46   26   27 1
    47   27   28 1
    48   27   46 1
    49   27   47 1
    50   28   29 1
    51   28   48 1
    52   28   49 1
    53   30   50 1
    54   31   51 1
    55   31   52 1
@<TRIPOS>MOLECULE
CHEMBL34072__1
   52    55     0     0     0
SMALL
USER_CHARGES

@<TRIPOS>ATOM
      1 C1          1.7816   -0.0928   -4.0219 C.ar      1 <0>        -0.0642
      2 C2          2.9467    0.5957   -3.7371 C.ar      1 <0>        -0.1602
      3 C3          3.6088    0.3781   -2.5435 C.ar      1 <0>        -0.0706
      4 C4          3.1047   -0.5329   -1.6268 C.ar      1 <0>        -0.1925
      5 C5          1.9291   -1.2271   -1.9139 C.ar      1 <0>         0.2485
      6 C6          1.2718   -1.0025   -3.1143 C.ar      1 <0>        -0.1845
      7 N1          1.4151   -2.1472   -0.9939 N.pl3     1 <0>        -0.8702
      8 S1          3.9469   -0.8128   -0.1046 S.3       1 <0>         0.0418
      9 C7          5.2449    0.3787   -0.1102 C.2       1 <0>         0.2088
     10 C8          6.5673   -0.0362   -0.1786 C.2       1 <0>        -0.1188
     11 C9          7.6222    0.9321   -0.1832 C.1       1 <0>         0.2615
     12 N2          8.4591    1.7003   -0.1868 N.1       1 <0>        -0.4293
     13 C10         6.8874   -1.4798   -0.2467 C.ar      1 <0>        -0.0090
     14 C11         6.5795   -2.3173    0.8263 C.ar      1 <0>        -0.0884
     15 C12         6.8805   -3.6616    0.7566 C.ar      1 <0>        -0.1121
     16 C13         7.4868   -4.1802   -0.3740 C.ar      1 <0>        -0.1030
     17 C14         7.7951   -3.3553   -1.4409 C.ar      1 <0>        -0.1099
     18 C15         7.4931   -2.0100   -1.3863 C.ar      1 <0>        -0.0851
     19 C16         8.4559   -3.9284   -2.6681 C.3       1 <0>         0.1948
     20 C17         7.4035   -4.4877   -3.5904 C.ar      1 <0>        -0.1052
     21 C18         6.8563   -5.7322   -3.3390 C.ar      1 <0>        -0.1036
     22 C19         5.8920   -6.2490   -4.1832 C.ar      1 <0>        -0.1081
     23 C20         5.4703   -5.5200   -5.2853 C.ar      1 <0>         0.0518
     24 C21         6.0184   -4.2679   -5.5367 C.ar      1 <0>         0.0563
     25 C22         6.9829   -3.7533   -4.6830 C.ar      1 <0>        -0.0989
     26 O1          5.6133   -3.5326   -6.6079 O.3       1 <0>        -0.3054
     27 C23         4.9151   -4.2335   -7.6428 C.3       1 <0>         0.0203
     28 C24         3.8557   -5.1291   -6.9865 C.3       1 <0>         0.0205
     29 O2          4.5227   -6.0439   -6.1100 O.3       1 <0>        -0.3069
     30 O3          9.3541   -4.9708   -2.2826 O.3       1 <0>        -0.5436
     31 N3          4.9481    1.7170   -0.0470 N.pl3     1 <0>        -0.8329
     32 H1          1.2660    0.0840   -4.9543 H         1 <0>         0.1255
     33 H2          3.3405    1.3053   -4.4497 H         1 <0>         0.1231
     34 H3          4.5188    0.9170   -2.3248 H         1 <0>         0.1217
     35 H4          0.3615   -1.5381   -3.3400 H         1 <0>         0.1271
     36 H5          1.8762   -2.3034   -0.1549 H         1 <0>         0.3990
     37 H6          0.5976   -2.6291   -1.1951 H         1 <0>         0.4033
     38 H7          6.1069   -1.9136    1.7096 H         1 <0>         0.1234
     39 H8          6.6427   -4.3108    1.5864 H         1 <0>         0.1270
     40 H9          7.7208   -5.2334   -0.4236 H         1 <0>         0.1192
     41 H10         7.7298   -1.3679   -2.2218 H         1 <0>         0.1217
     42 H11         9.0098   -3.1432   -3.1826 H         1 <0>         0.1168
     43 H12         7.1834   -6.3016   -2.4815 H         1 <0>         0.1288
     44 H13         5.4666   -7.2217   -3.9849 H         1 <0>         0.1363
     45 H14         7.4088   -2.7795   -4.8747 H         1 <0>         0.1350
     46 H15         4.4311   -3.5191   -8.3087 H         1 <0>         0.1232
     47 H16         5.6161   -4.8474   -8.2084 H         1 <0>         0.0784
     48 H17         3.1582   -4.5158   -6.4160 H         1 <0>         0.0781
     49 H18         3.3158   -5.6831   -7.7544 H         1 <0>         0.1230
     50 H19         8.9288   -5.7048   -1.8184 H         1 <0>         0.3735
     51 H20         4.0347    2.0044    0.1081 H         1 <0>         0.4112
     52 H21         5.6516    2.3756   -0.1575 H         1 <0>         0.4028
@<TRIPOS>BOND
     1    1    6 ar
     2    1    2 ar
     3    1   32 1
     4    2    3 ar
     5    2   33 1
     6    3    4 ar
     7    3   34 1
     8    4    5 ar
     9    4    8 1
    10    5    6 ar
    11    5    7 1
    12    6   35 1
    13    7   36 1
    14    7   37 1
    15    8    9 1
    16    9   10 2
    17    9   31 1
    18   10   11 1
    19   10   13 1
    20   11   12 3
    21   13   18 ar
    22   13   14 ar
    23   14   15 ar
    24   14   38 1
    25   15   16 ar
    26   15   39 1
    27   16   17 ar
    28   16   40 1
    29   17   18 ar
    30   17   19 1
    31   18   41 1
    32   19   20 1
    33   19   30 1
    34   19   42 1
    35   20   25 ar
    36   20   21 ar
    37   21   22 ar
    38   21   43 1
    39   22   23 ar
    40   22   44 1
    41   23   29 1
    42   23   24 ar
    43   24   25 ar
    44   24   26 1
    45   25   45 1
    46   26   27 1
    47   27   28 1
    48   27   46 1
    49   27   47 1
    50   28   29 1
    51   28   48 1
    52   28   49 1
    53   30   50 1
    54   31   51 1
    55   31   52 1
@<TRIPOS>MOLECULE
CHEMBL34072__2
   52    55     0     0     0
SMALL
USER_CHARGES

@<TRIPOS>ATOM
      1 C1          1.0397   -0.3000   -3.1720 C.ar      1 <0>        -0.0634
      2 C2          2.2342    0.3969   -3.1800 C.ar      1 <0>        -0.1609
      3 C3          3.1372    0.2410   -2.1453 C.ar      1 <0>        -0.0731
      4 C4          2.8463   -0.6163   -1.0942 C.ar      1 <0>        -0.1920
      5 C5          1.6411   -1.3190   -1.0858 C.ar      1 <0>         0.2483
      6 C6          0.7413   -1.1566   -2.1287 C.ar      1 <0>        -0.1836
      7 N1          1.3414   -2.1853   -0.0290 N.pl3     1 <0>        -0.8699
      8 S1          3.9957   -0.8176    0.2260 S.3       1 <0>         0.0168
      9 C7          5.2449    0.3787   -0.1102 C.2       1 <0>         0.2156
     10 C8          6.5288   -0.0325   -0.4390 C.2       1 <0>        -0.1206
     11 C9          6.8385   -1.4290   -0.5049 C.1       1 <0>         0.2697
     12 N2          7.0842   -2.5369   -0.5572 N.1       1 <0>        -0.4239
     13 C10         7.5782    0.9725   -0.7215 C.ar      1 <0>        -0.0195
     14 C11         7.4614    1.8157   -1.8274 C.ar      1 <0>        -0.1056
     15 C12         8.4428    2.7501   -2.0853 C.ar      1 <0>        -0.1111
     16 C13         9.5416    2.8522   -1.2503 C.ar      1 <0>        -0.1030
     17 C14         9.6635    2.0191   -0.1526 C.ar      1 <0>        -0.1073
     18 C15         8.6854    1.0847    0.1200 C.ar      1 <0>        -0.0867
     19 C16        10.8637    2.1368    0.7511 C.3       1 <0>         0.1948
     20 C17        12.0350    1.4236    0.1261 C.ar      1 <0>        -0.1091
     21 C18        12.8334    2.0809   -0.7915 C.ar      1 <0>        -0.1050
     22 C19        13.9076    1.4298   -1.3677 C.ar      1 <0>        -0.1080
     23 C20        14.1877    0.1149   -1.0266 C.ar      1 <0>         0.0526
     24 C21        13.3866   -0.5449   -0.1023 C.ar      1 <0>         0.0557
     25 C22        12.3125    0.1157    0.4754 C.ar      1 <0>        -0.0998
     26 O1         13.6483   -1.8326    0.2525 O.3       1 <0>        -0.3058
     27 C23        14.5076   -2.5779   -0.6171 C.3       1 <0>         0.0198
     28 C24        15.7200   -1.7021   -0.9611 C.3       1 <0>         0.0201
     29 O2         15.2466   -0.5144   -1.6055 O.3       1 <0>        -0.3066
     30 O3         11.1885    3.5163    0.9343 O.3       1 <0>        -0.5431
     31 N3          4.9481    1.7170   -0.0470 N.pl3     1 <0>        -0.8253
     32 H1          0.3359   -0.1713   -3.9810 H         1 <0>         0.1274
     33 H2          2.4623    1.0648   -3.9975 H         1 <0>         0.1251
     34 H3          4.0693    0.7864   -2.1552 H         1 <0>         0.1243
     35 H4         -0.1926   -1.6989   -2.1255 H         1 <0>         0.1288
     36 H5          1.9719   -2.2981    0.6995 H         1 <0>         0.3994
     37 H6          0.5030   -2.6732   -0.0247 H         1 <0>         0.4040
     38 H7          6.6047    1.7365   -2.4802 H         1 <0>         0.1254
     39 H8          8.3536    3.4032   -2.9408 H         1 <0>         0.1284
     40 H9         10.3075    3.5852   -1.4566 H         1 <0>         0.1210
     41 H10         8.7793    0.4381    0.9799 H         1 <0>         0.1263
     42 H11        10.6369    1.6855    1.7170 H         1 <0>         0.1189
     43 H12        12.6170    3.1047   -1.0587 H         1 <0>         0.1294
     44 H13        14.5293    1.9453   -2.0848 H         1 <0>         0.1375
     45 H14        11.6899   -0.3940    1.1958 H         1 <0>         0.1359
     46 H15        14.8409   -3.4860   -0.1147 H         1 <0>         0.1245
     47 H16        13.9711   -2.8378   -1.5296 H         1 <0>         0.0789
     48 H17        16.2530   -1.4372   -0.0480 H         1 <0>         0.0792
     49 H18        16.3862   -2.2439   -1.6323 H         1 <0>         0.1242
     50 H19        11.4019    3.9824    0.1144 H         1 <0>         0.3736
     51 H20         4.0347    2.0044    0.1081 H         1 <0>         0.4099
     52 H21         5.6516    2.3756   -0.1575 H         1 <0>         0.4075
@<TRIPOS>BOND
     1    1    6 ar
     2    1    2 ar
     3    1   32 1
     4    2    3 ar
     5    2   33 1
     6    3    4 ar
     7    3   34 1
     8    4    5 ar
     9    4    8 1
    10    5    6 ar
    11    5    7 1
    12    6   35 1
    13    7   36 1
    14    7   37 1
    15    8    9 1
    16    9   10 2
    17    9   31 1
    18   10   11 1
    19   10   13 1
    20   11   12 3
    21   13   18 ar
    22   13   14 ar
    23   14   15 ar
    24   14   38 1
    25   15   16 ar
    26   15   39 1
    27   16   17 ar
    28   16   40 1
    29   17   18 ar
    30   17   19 1
    31   18   41 1
    32   19   20 1
    33   19   30 1
    34   19   42 1
    35   20   25 ar
    36   20   21 ar
    37   21   22 ar
    38   21   43 1
    39   22   23 ar
    40   22   44 1
    41   23   29 1
    42   23   24 ar
    43   24   25 ar
    44   24   26 1
    45   25   45 1
    46   26   27 1
    47   27   28 1
    48   27   46 1
    49   27   47 1
    50   28   29 1
    51   28   48 1
    52   28   49 1
    53   30   50 1
    54   31   51 1
    55   31   52 1
@<TRIPOS>MOLECULE
CHEMBL34072__3
   52    55     0     0     0
SMALL
USER_CHARGES

@<TRIPOS>ATOM
      1 C1          1.7816   -0.0928   -4.0219 C.ar      1 <0>        -0.0638
      2 C2          2.9467    0.5957   -3.7371 C.ar      1 <0>        -0.1614
      3 C3          3.6088    0.3781   -2.5435 C.ar      1 <0>        -0.0715
      4 C4          3.1047   -0.5329   -1.6268 C.ar      1 <0>        -0.1938
      5 C5          1.9291   -1.2271   -1.9139 C.ar      1 <0>         0.2486
      6 C6          1.2718   -1.0025   -3.1143 C.ar      1 <0>        -0.1837
      7 N1          1.4151   -2.1472   -0.9939 N.pl3     1 <0>        -0.8701
      8 S1          3.9469   -0.8128   -0.1046 S.3       1 <0>         0.0421
      9 C7          5.2449    0.3787   -0.1102 C.2       1 <0>         0.2093
     10 C8          6.5673   -0.0362   -0.1786 C.2       1 <0>        -0.1197
     11 C9          7.6222    0.9321   -0.1832 C.1       1 <0>         0.2616
     12 N2          8.4591    1.7003   -0.1868 N.1       1 <0>        -0.4300
     13 C10         6.8874   -1.4798   -0.2467 C.ar      1 <0>        -0.0091
     14 C11         6.5795   -2.3173    0.8263 C.ar      1 <0>        -0.0880
     15 C12         6.8805   -3.6616    0.7566 C.ar      1 <0>        -0.1124
     16 C13         7.4868   -4.1802   -0.3740 C.ar      1 <0>        -0.1022
     17 C14         7.7951   -3.3553   -1.4409 C.ar      1 <0>        -0.1099
     18 C15         7.4931   -2.0100   -1.3863 C.ar      1 <0>        -0.0849
     19 C16         8.4559   -3.9284   -2.6681 C.3       1 <0>         0.1956
     20 C17         9.9325   -4.0902   -2.4143 C.ar      1 <0>        -0.1069
     21 C18        10.4052   -5.2321   -1.7947 C.ar      1 <0>        -0.1046
     22 C19        11.7584   -5.3835   -1.5591 C.ar      1 <0>        -0.1079
     23 C20        12.6463   -4.3899   -1.9441 C.ar      1 <0>         0.0514
     24 C21        12.1714   -3.2431   -2.5692 C.ar      1 <0>         0.0549
     25 C22        10.8124   -3.0993   -2.8064 C.ar      1 <0>        -0.1004
     26 O1         13.0261   -2.2594   -2.9621 O.3       1 <0>        -0.3064
     27 C23        14.3341   -2.2727   -2.3801 C.3       1 <0>         0.0199
     28 C24        14.8707   -3.7094   -2.4366 C.3       1 <0>         0.0202
     29 O2         13.9758   -4.5514   -1.7017 O.3       1 <0>        -0.3068
     30 O3          7.8816   -5.2022   -2.9674 O.3       1 <0>        -0.5431
     31 N3          4.9481    1.7170   -0.0470 N.pl3     1 <0>        -0.8328
     32 H1          1.2660    0.0840   -4.9543 H         1 <0>         0.1265
     33 H2          3.3405    1.3053   -4.4497 H         1 <0>         0.1234
     34 H3          4.5188    0.9170   -2.3248 H         1 <0>         0.1216
     35 H4          0.3615   -1.5381   -3.3400 H         1 <0>         0.1283
     36 H5          1.8762   -2.3034   -0.1549 H         1 <0>         0.3990
     37 H6          0.5976   -2.6291   -1.1951 H         1 <0>         0.4037
     38 H7          6.1069   -1.9136    1.7096 H         1 <0>         0.1235
     39 H8          6.6427   -4.3108    1.5864 H         1 <0>         0.1269
     40 H9          7.7208   -5.2334   -0.4236 H         1 <0>         0.1189
     41 H10         7.7298   -1.3679   -2.2218 H         1 <0>         0.1219
     42 H11         8.3038   -3.2542   -3.5110 H         1 <0>         0.1173
     43 H12         9.7156   -6.0070   -1.4940 H         1 <0>         0.1299
     44 H13        12.1250   -6.2763   -1.0743 H         1 <0>         0.1373
     45 H14        10.4411   -2.2102   -3.2942 H         1 <0>         0.1351
     46 H15        14.9935   -1.6117   -2.9426 H         1 <0>         0.1239
     47 H16        14.2784   -1.9417   -1.3431 H         1 <0>         0.0784
     48 H17        14.9208   -4.0426   -3.4732 H         1 <0>         0.0790
     49 H18        15.8637   -3.7488   -1.9889 H         1 <0>         0.1238
     50 H19         7.9798   -5.8539   -2.2598 H         1 <0>         0.3733
     51 H20         4.0347    2.0044    0.1081 H         1 <0>         0.4114
     52 H21         5.6516    2.3756   -0.1575 H         1 <0>         0.4027
@<TRIPOS>BOND
     1    1    6 ar
     2    1    2 ar
     3    1   32 1
     4    2    3 ar
     5    2   33 1
     6    3    4 ar
     7    3   34 1
     8    4    5 ar
     9    4    8 1
    10    5    6 ar
    11    5    7 1
    12    6   35 1
    13    7   36 1
    14    7   37 1
    15    8    9 1
    16    9   10 2
    17    9   31 1
    18   10   11 1
    19   10   13 1
    20   11   12 3
    21   13   18 ar
    22   13   14 ar
    23   14   15 ar
    24   14   38 1
    25   15   16 ar
    26   15   39 1
    27   16   17 ar
    28   16   40 1
    29   17   18 ar
    30   17   19 1
    31   18   41 1
    32   19   20 1
    33   19   30 1
    34   19   42 1
    35   20   25 ar
    36   20   21 ar
    37   21   22 ar
    38   21   43 1
    39   22   23 ar
    40   22   44 1
    41   23   29 1
    42   23   24 ar
    43   24   25 ar
    44   24   26 1
    45   25   45 1
    46   26   27 1
    47   27   28 1
    48   27   46 1
    49   27   47 1
    50   28   29 1
    51   28   48 1
    52   28   49 1
    53   30   50 1
    54   31   51 1
    55   31   52 1
@<TRIPOS>MOLECULE
CHEMBL188343
   56    60     0     0     0
SMALL
USER_CHARGES

@<TRIPOS>ATOM
      1 C1          1.0737   -0.2869   -0.6772 C.ar      1 <0>        -0.0578
      2 C2          2.1723    0.5483   -0.7226 C.ar      1 <0>        -0.1800
      3 C3          2.1166    1.8018   -0.1274 C.ar      1 <0>         0.2044
      4 C4          0.9560    2.2152    0.5134 C.ar      1 <0>        -0.1792
      5 C5         -0.1425    1.3799    0.5588 C.ar      1 <0>        -0.0955
      6 C6         -0.0868    0.1265   -0.0364 C.ar      1 <0>         0.1108
      7 N1         -1.2013   -0.7208    0.0097 N.pl3     1 <0>        -0.6320
      8 C7         -1.0257   -2.0919    0.1100 C.ar      1 <0>         0.6245
      9 N2          0.1969   -2.5687    0.2805 N.ar      1 <0>        -0.5996
     10 C8          0.4043   -3.8777    0.3809 C.ar      1 <0>         0.3416
     11 C9         -0.6922   -4.7524    0.3038 C.ar      1 <0>        -0.1506
     12 C10        -1.9726   -4.2016    0.1216 C.ar      1 <0>         0.5432
     13 N3         -2.0900   -2.8812    0.0372 N.ar      1 <0>        -0.6192
     14 N4         -3.0874   -5.0170    0.0390 N.pl3     1 <0>        -0.6876
     15 C11        -4.4145   -4.4262   -0.1511 C.3       1 <0>         0.1518
     16 C12        -4.9921   -4.0221    1.2069 C.3       1 <0>        -0.1275
     17 C13        -6.3780   -3.4052    1.0084 C.3       1 <0>        -0.1158
     18 C14        -7.3018   -4.4289    0.3455 C.3       1 <0>        -0.1231
     19 C15        -6.7242   -4.8330   -1.0124 C.3       1 <0>        -0.1145
     20 C16        -5.3383   -5.4500   -0.8140 C.3       1 <0>        -0.1288
     21 N5         -0.2084   -6.0121    0.4337 N.2       1 <0>        -0.4549
     22 C17         1.0833   -5.9668    0.5818 C.2       1 <0>         0.2364
     23 N6          1.5099   -4.6710    0.5561 N.pl3     1 <0>        -0.5828
     24 H1          2.4266   -4.3666    0.6449 H         1 <0>         0.4289
     25 N7          3.2302    2.6482   -0.1730 N.pl3     1 <0>        -0.6352
     26 C18         3.1595    4.0220    0.3496 C.3       1 <0>         0.0872
     27 C19         4.3420    4.2390    1.3006 C.3       1 <0>         0.0451
     28 O1          5.5539    3.8743    0.6357 O.3       1 <0>        -0.3797
     29 C20         5.6236    2.4967    0.2598 C.3       1 <0>         0.0456
     30 C21         4.5083    2.1887   -0.7394 C.3       1 <0>         0.0880
     31 H2          1.1155   -1.2600   -1.1439 H         1 <0>         0.1316
     32 H3          3.0750    0.2266   -1.2207 H         1 <0>         0.1219
     33 H4          0.9128    3.1899    0.9766 H         1 <0>         0.1248
     34 H5         -1.0451    1.7014    1.0572 H         1 <0>         0.1242
     35 H6         -2.0960   -0.3480   -0.0287 H         1 <0>         0.4223
     36 H7         -2.9903   -5.9797    0.1068 H         1 <0>         0.4177
     37 H8         -4.3323   -3.5452   -0.7876 H         1 <0>         0.0936
     38 H9         -5.0743   -4.9031    1.8434 H         1 <0>         0.0612
     39 H10        -4.3339   -3.2928    1.6792 H         1 <0>         0.0679
     40 H11        -6.7895   -3.1173    1.9759 H         1 <0>         0.0639
     41 H12        -6.2958   -2.5242    0.3719 H         1 <0>         0.0650
     42 H13        -7.3840   -5.3099    0.9821 H         1 <0>         0.0623
     43 H14        -8.2892   -3.9894    0.2042 H         1 <0>         0.0640
     44 H15        -7.3824   -5.5623   -1.4847 H         1 <0>         0.0674
     45 H16        -6.6420   -3.9520   -1.6490 H         1 <0>         0.0656
     46 H17        -4.9268   -5.7378   -1.7814 H         1 <0>         0.0689
     47 H18        -5.4205   -6.3309   -0.1774 H         1 <0>         0.0682
     48 H19         1.7234   -6.8277    0.7069 H         1 <0>         0.2226
     49 H20         3.2168    4.7320   -0.4754 H         1 <0>         0.0700
     50 H21         2.2233    4.1613    0.8902 H         1 <0>         0.0926
     51 H22         4.3878    5.2885    1.5911 H         1 <0>         0.1045
     52 H23         4.2135    3.6199    2.1885 H         1 <0>         0.0555
     53 H24         6.5913    2.2929   -0.1986 H         1 <0>         0.1046
     54 H25         5.4997    1.8714    1.1439 H         1 <0>         0.0549
     55 H26         4.4648    1.1145   -0.9197 H         1 <0>         0.0916
     56 H27         4.7037    2.7110   -1.6760 H         1 <0>         0.0693
@<TRIPOS>BOND
     1    1    6 ar
     2    1    2 ar
     3    1   31 1
     4    2    3 ar
     5    2   32 1
     6    3    4 ar
     7    3   25 1
     8    4    5 ar
     9    4   33 1
    10    5    6 ar
    11    5   34 1
    12    6    7 1
    13    7    8 1
    14    7   35 1
    15    8   13 ar
    16    8    9 ar
    17    9   10 ar
    18   10   23 1
    19   10   11 ar
    20   11   12 ar
    21   11   21 1
    22   12   13 ar
    23   12   14 1
    24   14   15 1
    25   14   36 1
    26   15   20 1
    27   15   16 1
    28   15   37 1
    29   16   17 1
    30   16   38 1
    31   16   39 1
    32   17   18 1
    33   17   40 1
    34   17   41 1
    35   18   19 1
    36   18   42 1
    37   18   43 1
    38   19   20 1
    39   19   44 1
    40   19   45 1
    41   20   46 1
    42   20   47 1
    43   21   22 2
    44   22   23 1
    45   22   48 1
    46   23   24 1
    47   25   30 1
    48   25   26 1
    49   26   27 1
    50   26   49 1
    51   26   50 1
    52   27   28 1
    53   27   51 1
    54   27   52 1
    55   28   29 1
    56   29   30 1
    57   29   53 1
    58   29   54 1
    59   30   55 1
    60   30   56 1
@<TRIPOS>MOLECULE
CHEMBL95002
   65    69     0     0     0
SMALL
USER_CHARGES

@<TRIPOS>ATOM
      1 C1         -4.5684   -0.8592   -4.2908 C.3       1 <0>         0.0229
      2 O1         -4.5825   -2.1879   -3.7648 O.3       1 <0>        -0.2958
      3 C2         -4.6966   -2.3167   -2.4160 C.ar      1 <0>         0.1267
      4 C3         -4.7966   -1.2006   -1.6360 C.ar      1 <0>        -0.1584
      5 C4         -4.9144   -1.3303   -0.2444 C.ar      1 <0>        -0.1026
      6 C5         -4.9293   -2.6168    0.3467 C.ar      1 <0>         0.1682
      7 C6         -4.8247   -3.7486   -0.4761 C.ar      1 <0>        -0.1831
      8 C7         -4.7163   -3.5942   -1.8396 C.ar      1 <0>         0.1608
      9 O2         -4.6215   -4.6917   -2.6347 O.3       1 <0>        -0.2753
     10 C8         -4.6474   -5.9656   -1.9879 C.3       1 <0>         0.0590
     11 C9         -4.5304   -7.0729   -3.0373 C.3       1 <0>         0.0550
     12 N1         -3.2445   -6.9506   -3.7369 N.3       1 <0>        -0.5297
     13 C10        -3.2669   -7.6819   -5.0120 C.3       1 <0>         0.0190
     14 C11        -1.9322   -7.4791   -5.7339 C.3       1 <0>         0.0630
     15 O3         -0.8656   -7.9073   -4.8828 O.3       1 <0>        -0.3853
     16 C12        -0.8137   -7.2153   -3.6323 C.3       1 <0>         0.0638
     17 C13        -2.1372   -7.4155   -2.8891 C.3       1 <0>         0.0138
     18 N2         -5.0426   -2.7478    1.6767 N.ar      1 <0>        -0.4653
     19 C14        -5.1423   -1.7118    2.4698 C.ar      1 <0>         0.1795
     20 C15        -5.1367   -0.3994    1.9703 C.ar      1 <0>        -0.0936
     21 C16        -5.0200   -0.1914    0.5875 C.ar      1 <0>         0.2704
     22 N3         -5.0096    1.0826    0.0566 N.pl3     1 <0>        -0.7090
     23 C17        -6.2161    1.7364   -0.2169 C.ar      1 <0>         0.1690
     24 C18        -7.4017    1.0146   -0.2675 C.ar      1 <0>        -0.1374
     25 C19        -8.5918    1.6604   -0.5376 C.ar      1 <0>        -0.1008
     26 C20        -8.6036    3.0302   -0.7583 C.ar      1 <0>         0.0851
     27 C21        -7.4197    3.7520   -0.7080 C.ar      1 <0>        -0.1514
     28 C22        -6.2296    3.1085   -0.4324 C.ar      1 <0>        -0.1334
     29 O4         -9.7758    3.6654   -1.0246 O.3       1 <0>        -0.2604
     30 C23        -9.7585    5.0203   -1.1259 C.ar      1 <0>         0.0849
     31 C24        -9.2972    5.6247   -2.2866 C.ar      1 <0>        -0.1343
     32 C25        -9.2811    7.0023   -2.3871 C.ar      1 <0>        -0.1062
     33 C26        -9.7237    7.7789   -1.3322 C.ar      1 <0>        -0.1186
     34 C27       -10.1835    7.1792   -0.1742 C.ar      1 <0>        -0.1046
     35 C28       -10.2074    5.8019   -0.0709 C.ar      1 <0>        -0.1227
     36 C29        -5.2488    0.7149    2.8627 C.1       1 <0>         0.2567
     37 N4         -5.3377    1.5989    3.5706 N.1       1 <0>        -0.3981
     38 H1         -4.4732   -0.8990   -5.3759 H         1 <0>         0.1057
     39 H2         -5.4971   -0.3537   -4.0258 H         1 <0>         0.0587
     40 H3         -3.7243   -0.3116   -3.8718 H         1 <0>         0.0574
     41 H4         -4.7846   -0.2204   -2.0893 H         1 <0>         0.1478
     42 H5         -4.8345   -4.7373   -0.0416 H         1 <0>         0.1539
     43 H6         -3.8125   -6.0361   -1.2907 H         1 <0>         0.0683
     44 H7         -5.5853   -6.0780   -1.4441 H         1 <0>         0.0745
     45 H8         -4.5866   -8.0450   -2.5475 H         1 <0>         0.0641
     46 H9         -5.3451   -6.9803   -3.7555 H         1 <0>         0.0898
     47 H10        -3.4190   -8.7440   -4.8198 H         1 <0>         0.0436
     48 H11        -4.0783   -7.3041   -5.6341 H         1 <0>         0.0889
     49 H12        -1.9225   -8.0655   -6.6527 H         1 <0>         0.0990
     50 H13        -1.8049   -6.4234   -5.9738 H         1 <0>         0.0616
     51 H14         0.0048   -7.6110   -3.0310 H         1 <0>         0.0985
     52 H15        -0.6539   -6.1520   -3.8111 H         1 <0>         0.0608
     53 H16        -2.1239   -6.8432   -1.9615 H         1 <0>         0.0853
     54 H17        -2.2712   -8.4734   -2.6629 H         1 <0>         0.0449
     55 H18        -5.2315   -1.8699    3.5344 H         1 <0>         0.1721
     56 H19        -4.1660    1.5247   -0.1269 H         1 <0>         0.4167
     57 H20        -7.3926   -0.0517   -0.0961 H         1 <0>         0.1284
     58 H21        -9.5137    1.0992   -0.5773 H         1 <0>         0.1354
     59 H22        -7.4297    4.8182   -0.8799 H         1 <0>         0.1320
     60 H23        -5.3088    3.6712   -0.3885 H         1 <0>         0.1280
     61 H24        -8.9507    5.0186   -3.1106 H         1 <0>         0.1303
     62 H25        -8.9222    7.4732   -3.2904 H         1 <0>         0.1305
     63 H26        -9.7100    8.8558   -1.4127 H         1 <0>         0.1288
     64 H27       -10.5279    7.7881    0.6486 H         1 <0>         0.1316
     65 H28       -10.5711    5.3339    0.8320 H         1 <0>         0.1316
@<TRIPOS>BOND
     1    1    2 1
     2    1   38 1
     3    1   39 1
     4    1   40 1
     5    2    3 1
     6    3    8 ar
     7    3    4 ar
     8    4    5 ar
     9    4   41 1
    10    5   21 ar
    11    5    6 ar
    12    6    7 ar
    13    6   18 ar
    14    7    8 ar
    15    7   42 1
    16    8    9 1
    17    9   10 1
    18   10   11 1
    19   10   43 1
    20   10   44 1
    21   11   12 1
    22   11   45 1
    23   11   46 1
    24   12   17 1
    25   12   13 1
    26   13   14 1
    27   13   47 1
    28   13   48 1
    29   14   15 1
    30   14   49 1
    31   14   50 1
    32   15   16 1
    33   16   17 1
    34   16   51 1
    35   16   52 1
    36   17   53 1
    37   17   54 1
    38   18   19 ar
    39   19   20 ar
    40   19   55 1
    41   20   21 ar
    42   20   36 1
    43   21   22 1
    44   22   23 1
    45   22   56 1
    46   23   28 ar
    47   23   24 ar
    48   24   25 ar
    49   24   57 1
    50   25   26 ar
    51   25   58 1
    52   26   27 ar
    53   26   29 1
    54   27   28 ar
    55   27   59 1
    56   28   60 1
    57   29   30 1
    58   30   35 ar
    59   30   31 ar
    60   31   32 ar
    61   31   61 1
    62   32   33 ar
    63   32   62 1
    64   33   34 ar
    65   33   63 1
    66   34   35 ar
    67   34   64 1
    68   35   65 1
    69   36   37 3
@<TRIPOS>MOLECULE
CHEMBL95002__1
   66    70     0     0     0
SMALL
USER_CHARGES

@<TRIPOS>ATOM
      1 C1          5.2441    1.4954   -1.5288 C.3       1 <0>         0.0210
      2 O1          5.1973    0.0711   -1.6346 O.3       1 <0>        -0.3070
      3 C2          4.2473   -0.4564   -2.4522 C.ar      1 <0>         0.1198
      4 C3          3.3998    0.3737   -3.1279 C.ar      1 <0>        -0.1430
      5 C4          2.4191   -0.1674   -3.9719 C.ar      1 <0>        -0.0957
      6 C5          2.3108   -1.5714   -4.1205 C.ar      1 <0>         0.1592
      7 C6          3.1932   -2.4036   -3.4150 C.ar      1 <0>        -0.1606
      8 C7          4.1509   -1.8471   -2.5978 C.ar      1 <0>         0.1395
      9 O2          5.0082   -2.6547   -1.9207 O.3       1 <0>        -0.3129
     10 C8          4.8596   -4.0632   -2.1108 C.3       1 <0>         0.0191
     11 C9          5.9046   -4.8039   -1.2740 C.3       1 <0>         0.0012
     12 N1          5.6900   -4.5102    0.1493 N.4       1 <0>        -0.3877
     13 C10         6.7899   -5.0812    0.9387 C.3       1 <0>        -0.0434
     14 C11         6.5641   -4.7737    2.4211 C.3       1 <0>         0.0353
     15 O3          5.2979   -5.3026    2.8249 O.3       1 <0>        -0.3559
     16 C12         4.1959   -4.7940    2.0682 C.3       1 <0>         0.0370
     17 C13         4.4173   -5.1015    0.5851 C.3       1 <0>        -0.0499
     18 N2          1.3757   -2.0953   -4.9267 N.ar      1 <0>        -0.4654
     19 C14         0.5392   -1.3454   -5.5977 C.ar      1 <0>         0.1885
     20 C15         0.5745    0.0557   -5.5110 C.ar      1 <0>        -0.0755
     21 C16         1.5283    0.6688   -4.6843 C.ar      1 <0>         0.2729
     22 N3          1.5956    2.0428   -4.5708 N.pl3     1 <0>        -0.7115
     23 C17         2.3414    2.7852   -5.4929 C.ar      1 <0>         0.1615
     24 C18         3.2445    2.1453   -6.3321 C.ar      1 <0>        -0.1389
     25 C19         3.9802    2.8787   -7.2416 C.ar      1 <0>        -0.1028
     26 C20         3.8176    4.2546   -7.3175 C.ar      1 <0>         0.0915
     27 C21         2.9157    4.8945   -6.4796 C.ar      1 <0>        -0.1488
     28 C22         2.1751    4.1619   -5.5734 C.ar      1 <0>        -0.1297
     29 O4          4.5427    4.9761   -8.2131 O.3       1 <0>        -0.2584
     30 C23         4.4296    6.3298   -8.1825 C.ar      1 <0>         0.0809
     31 C24         5.0686    7.0584   -7.1893 C.ar      1 <0>        -0.1344
     32 C25         4.9524    8.4345   -7.1608 C.ar      1 <0>        -0.1053
     33 C26         4.1998    9.0861   -8.1205 C.ar      1 <0>        -0.1164
     34 C27         3.5616    8.3624   -9.1110 C.ar      1 <0>        -0.1032
     35 C28         3.6796    6.9866   -9.1477 C.ar      1 <0>        -0.1221
     36 C29        -0.3530    0.8504   -6.2585 C.1       1 <0>         0.2452
     37 N4         -1.0889    1.4809   -6.8514 N.1       1 <0>        -0.3783
     38 H1          5.4315    1.9268   -2.5121 H         1 <0>         0.0636
     39 H2          4.2917    1.8628   -1.1465 H         1 <0>         0.0612
     40 H3          6.0445    1.7831   -0.8472 H         1 <0>         0.1093
     41 H4          3.4842    1.4442   -3.0126 H         1 <0>         0.1533
     42 H5          3.1245   -3.4766   -3.5168 H         1 <0>         0.1552
     43 H6          3.8610   -4.3686   -1.7983 H         1 <0>         0.0916
     44 H7          5.0003   -4.3045   -3.1644 H         1 <0>         0.1170
     45 H8          5.8106   -5.8767   -1.4418 H         1 <0>         0.1528
     46 H9          6.9024   -4.4765   -1.5660 H         1 <0>         0.1457
     47 H10         6.8206   -6.1608    0.7919 H         1 <0>         0.1404
     48 H11         7.7345   -4.6431    0.6163 H         1 <0>         0.1443
     49 H12         7.3559   -5.2330    3.0129 H         1 <0>         0.1431
     50 H13         6.5734   -3.6946    2.5746 H         1 <0>         0.0819
     51 H14         3.2738   -5.2680    2.4045 H         1 <0>         0.1426
     52 H15         4.1242   -3.7156    2.2095 H         1 <0>         0.0815
     53 H16         3.6006   -4.6785    0.0001 H         1 <0>         0.1401
     54 H17         4.4489   -6.1811    0.4384 H         1 <0>         0.1419
     55 H18        -0.1960   -1.8155   -6.2339 H         1 <0>         0.1783
     56 H19         1.1257    2.4936   -3.8519 H         1 <0>         0.4184
     57 H20         3.3715    1.0745   -6.2729 H         1 <0>         0.1252
     58 H21         4.6827    2.3814   -7.8940 H         1 <0>         0.1362
     59 H22         2.7896    5.9655   -6.5392 H         1 <0>         0.1337
     60 H23         1.4696    4.6596   -4.9246 H         1 <0>         0.1295
     61 H24         5.6560    6.5499   -6.4391 H         1 <0>         0.1288
     62 H25         5.4495    9.0020   -6.3880 H         1 <0>         0.1311
     63 H26         4.1099   10.1620   -8.0961 H         1 <0>         0.1305
     64 H27         2.9738    8.8737   -9.8589 H         1 <0>         0.1332
     65 H28         3.1850    6.4223   -9.9244 H         1 <0>         0.1323
     66 H29         5.6609   -3.5109    0.2860 H         1 <0>         0.4314
@<TRIPOS>BOND
     1    1    2 1
     2    1   38 1
     3    1   39 1
     4    1   40 1
     5    2    3 1
     6    3    8 ar
     7    3    4 ar
     8    4    5 ar
     9    4   41 1
    10    5   21 ar
    11    5    6 ar
    12    6    7 ar
    13    6   18 ar
    14    7    8 ar
    15    7   42 1
    16    8    9 1
    17    9   10 1
    18   10   11 1
    19   10   43 1
    20   10   44 1
    21   11   12 1
    22   11   45 1
    23   11   46 1
    24   12   17 1
    25   12   13 1
    26   12   66 1
    27   13   14 1
    28   13   47 1
    29   13   48 1
    30   14   15 1
    31   14   49 1
    32   14   50 1
    33   15   16 1
    34   16   17 1
    35   16   51 1
    36   16   52 1
    37   17   53 1
    38   17   54 1
    39   18   19 ar
    40   19   20 ar
    41   19   55 1
    42   20   21 ar
    43   20   36 1
    44   21   22 1
    45   22   23 1
    46   22   56 1
    47   23   28 ar
    48   23   24 ar
    49   24   25 ar
    50   24   57 1
    51   25   26 ar
    52   25   58 1
    53   26   27 ar
    54   26   29 1
    55   27   28 ar
    56   27   59 1
    57   28   60 1
    58   29   30 1
    59   30   35 ar
    60   30   31 ar
    61   31   32 ar
    62   31   61 1
    63   32   33 ar
    64   32   62 1
    65   33   34 ar
    66   33   63 1
    67   34   35 ar
    68   34   64 1
    69   35   65 1
    70   36   37 3
@<TRIPOS>MOLECULE
CHEMBL216449
   52    55     0     0     0
SMALL
USER_CHARGES

@<TRIPOS>ATOM
      1 C1         -1.7270    1.2635    0.1664 C.ar      1 <0>        -0.1278
      2 C2         -1.3687    2.2072    1.1085 C.ar      1 <0>        -0.0922
      3 C3         -0.9850    1.8072    2.3805 C.ar      1 <0>         0.0733
      4 C4         -0.9613    0.4588    2.7068 C.ar      1 <0>        -0.0689
      5 C5         -1.3197   -0.4859    1.7658 C.ar      1 <0>        -0.1527
      6 C6         -1.7035   -0.0863    0.4923 C.ar      1 <0>         0.1457
      7 N1         -2.0670   -1.0436   -0.4623 N.pl3     1 <0>        -0.6367
      8 C7         -2.0929   -2.3757   -0.1244 C.2       1 <0>         0.1741
      9 C8         -3.1734   -3.2617   -0.1790 C.2       1 <0>        -0.3560
     10 C9         -2.8815   -4.5608    0.2338 C.2       1 <0>         0.5429
     11 N2         -1.6153   -4.7936    0.6268 N.am      1 <0>        -0.7225
     12 S1         -0.8345   -3.3268    0.4445 S.3       1 <0>         0.5471
     13 O1         -3.7285   -5.4396    0.2391 O.2       1 <0>        -0.5100
     14 C10        -4.5112   -2.8552   -0.6352 C.cat     1 <0>         0.6177
     15 N3         -5.4525   -3.7510   -0.7807 N.pl3     1 <0>        -0.5987
     16 C11        -6.7851   -3.3461   -1.2351 C.3       1 <0>         0.0521
     17 C12        -7.6906   -4.5765   -1.3202 C.3       1 <0>         0.0661
     18 C13        -9.0617   -4.1781   -1.9074 C.3       1 <0>        -0.1478
     19 C14       -10.0440   -5.0302   -1.0583 C.3       1 <0>        -0.1568
     20 C15        -9.3176   -5.0398    0.3103 C.3       1 <0>         0.0466
     21 O2         -7.9184   -5.1039   -0.0081 O.3       1 <0>        -0.3741
     22 N4         -4.7729   -1.5287   -0.9096 N.pl3     1 <0>        -0.8058
     23 O3         -0.6315    2.7369    3.3074 O.3       1 <0>        -0.2353
     24 C16        -1.6016    3.5569    3.7906 C.ar      1 <0>         0.1387
     25 C17        -2.9227    3.3687    3.4119 C.ar      1 <0>        -0.1813
     26 C18        -3.9077    4.2039    3.9053 C.ar      1 <0>         0.0043
     27 C19        -3.5765    5.2272    4.7764 C.ar      1 <0>        -0.1241
     28 C20        -2.2606    5.4170    5.1549 C.ar      1 <0>        -0.0573
     29 C21        -1.2727    4.5809    4.6688 C.ar      1 <0>        -0.0576
     30 Cl1         0.3786    4.8156    5.1503 Cl        1 <0>        -0.0350
     31 Cl2        -5.5613    3.9695    3.4314 Cl        1 <0>        -0.0519
     32 H1         -2.0296    1.5752   -0.8224 H         1 <0>         0.1451
     33 H2         -1.3869    3.2569    0.8552 H         1 <0>         0.1479
     34 H3         -0.6622    0.1482    3.6969 H         1 <0>         0.1503
     35 H4         -1.3009   -1.5355    2.0198 H         1 <0>         0.1333
     36 H5         -2.3006   -0.7669   -1.3621 H         1 <0>         0.4334
     37 H6         -7.2083   -2.6318   -0.5289 H         1 <0>         0.1064
     38 H7         -6.7084   -2.8827   -2.2187 H         1 <0>         0.1135
     39 H8         -7.2244   -5.3358   -1.9482 H         1 <0>         0.1010
     40 H9         -9.2496   -3.1137   -1.7663 H         1 <0>         0.0853
     41 H10        -9.1254   -4.4480   -2.9616 H         1 <0>         0.0961
     42 H11       -11.0183   -4.5474   -0.9826 H         1 <0>         0.0941
     43 H12       -10.1377   -6.0389   -1.4605 H         1 <0>         0.0869
     44 H13        -9.5385   -4.1263    0.8623 H         1 <0>         0.0665
     45 H14        -9.6142   -5.9140    0.8898 H         1 <0>         0.0967
     46 H15        -4.0587   -0.8739   -0.8640 H         1 <0>         0.4263
     47 H16        -5.6711   -1.2509   -1.1482 H         1 <0>         0.4271
     48 H17        -3.1816    2.5705    2.7319 H         1 <0>         0.1454
     49 H18        -4.3474    5.8786    5.1608 H         1 <0>         0.1504
     50 H19        -2.0047    6.2164    5.8345 H         1 <0>         0.1569
     51 H20        -5.2685   -4.6837   -0.5877 H         1 <0>         0.4530
     52 H21        -1.2380   -5.6295    0.9427 H         1 <0>         0.4681
@<TRIPOS>BOND
     1    1    6 ar
     2    1    2 ar
     3    1   32 1
     4    2    3 ar
     5    2   33 1
     6    3    4 ar
     7    3   23 1
     8    4    5 ar
     9    4   34 1
    10    5    6 ar
    11    5   35 1
    12    6    7 1
    13    7    8 1
    14    7   36 1
    15    8   12 1
    16    8    9 2
    17    9   10 1
    18    9   14 1
    19   10   11 am
    20   10   13 2
    21   11   12 1
    22   11   52 1
    23   14   15 2
    24   14   22 1
    25   15   16 1
    26   15   51 1
    27   16   17 1
    28   16   37 1
    29   16   38 1
    30   17   21 1
    31   17   18 1
    32   17   39 1
    33   18   19 1
    34   18   40 1
    35   18   41 1
    36   19   20 1
    37   19   42 1
    38   19   43 1
    39   20   21 1
    40   20   44 1
    41   20   45 1
    42   22   46 1
    43   22   47 1
    44   23   24 1
    45   24   29 ar
    46   24   25 ar
    47   25   26 ar
    48   25   48 1
    49   26   27 ar
    50   26   31 1
    51   27   28 ar
    52   27   49 1
    53   28   29 ar
    54   28   50 1
    55   29   30 1
@<TRIPOS>MOLECULE
CHEMBL216449__1
   52    55     0     0     0
SMALL
USER_CHARGES

@<TRIPOS>ATOM
      1 C1         -1.7270    1.2635    0.1664 C.ar      1 <0>        -0.1278
      2 C2         -1.3687    2.2072    1.1085 C.ar      1 <0>        -0.0921
      3 C3         -0.9850    1.8072    2.3805 C.ar      1 <0>         0.0732
      4 C4         -0.9613    0.4588    2.7068 C.ar      1 <0>        -0.0690
      5 C5         -1.3197   -0.4859    1.7658 C.ar      1 <0>        -0.1529
      6 C6         -1.7035   -0.0863    0.4923 C.ar      1 <0>         0.1459
      7 N1         -2.0670   -1.0436   -0.4623 N.pl3     1 <0>        -0.6367
      8 C7         -2.0929   -2.3757   -0.1244 C.2       1 <0>         0.1743
      9 C8         -3.1734   -3.2617   -0.1790 C.2       1 <0>        -0.3558
     10 C9         -2.8815   -4.5608    0.2338 C.2       1 <0>         0.5435
     11 N2         -1.6153   -4.7936    0.6268 N.am      1 <0>        -0.7225
     12 S1         -0.8345   -3.3268    0.4445 S.3       1 <0>         0.5474
     13 O1         -3.7285   -5.4396    0.2391 O.2       1 <0>        -0.5113
     14 C10        -4.5112   -2.8552   -0.6352 C.cat     1 <0>         0.6181
     15 N3         -5.4525   -3.7510   -0.7807 N.pl3     1 <0>        -0.5992
     16 C11        -6.7851   -3.3461   -1.2351 C.3       1 <0>         0.0661
     17 C12        -7.6906   -4.5765   -1.3202 C.3       1 <0>         0.0641
     18 C13        -9.0853   -4.1810   -1.8673 C.3       1 <0>        -0.1478
     19 C14        -9.5614   -5.5328   -2.4656 C.3       1 <0>        -0.1564
     20 C15        -8.2413   -6.1471   -2.9787 C.3       1 <0>         0.0498
     21 O2         -7.1669   -5.5160   -2.2723 O.3       1 <0>        -0.3804
     22 N4         -4.7729   -1.5287   -0.9096 N.pl3     1 <0>        -0.8057
     23 O3         -0.6315    2.7369    3.3074 O.3       1 <0>        -0.2353
     24 C16        -1.6016    3.5569    3.7906 C.ar      1 <0>         0.1387
     25 C17        -2.9227    3.3687    3.4119 C.ar      1 <0>        -0.1813
     26 C18        -3.9077    4.2039    3.9053 C.ar      1 <0>         0.0043
     27 C19        -3.5765    5.2272    4.7764 C.ar      1 <0>        -0.1241
     28 C20        -2.2606    5.4170    5.1549 C.ar      1 <0>        -0.0573
     29 C21        -1.2727    4.5809    4.6688 C.ar      1 <0>        -0.0576
     30 Cl1         0.3786    4.8156    5.1503 Cl        1 <0>        -0.0350
     31 Cl2        -5.5613    3.9695    3.4314 Cl        1 <0>        -0.0519
     32 H1         -2.0296    1.5752   -0.8224 H         1 <0>         0.1452
     33 H2         -1.3869    3.2569    0.8552 H         1 <0>         0.1479
     34 H3         -0.6622    0.1482    3.6969 H         1 <0>         0.1502
     35 H4         -1.3009   -1.5355    2.0198 H         1 <0>         0.1334
     36 H5         -2.3006   -0.7669   -1.3621 H         1 <0>         0.4336
     37 H6         -7.2083   -2.6318   -0.5289 H         1 <0>         0.1147
     38 H7         -6.7084   -2.8827   -2.2187 H         1 <0>         0.1100
     39 H8         -7.7856   -5.0441   -0.3402 H         1 <0>         0.0928
     40 H9         -9.7442   -3.8535   -1.0632 H         1 <0>         0.0958
     41 H10        -9.0019   -3.4170   -2.6402 H         1 <0>         0.0874
     42 H11       -10.0085   -6.1617   -1.6958 H         1 <0>         0.0849
     43 H12       -10.2584   -5.3692   -3.2875 H         1 <0>         0.0933
     44 H13        -8.2323   -7.2195   -2.7842 H         1 <0>         0.0792
     45 H14        -8.1390   -5.9632   -4.0482 H         1 <0>         0.0781
     46 H15        -4.0587   -0.8739   -0.8640 H         1 <0>         0.4265
     47 H16        -5.6711   -1.2509   -1.1482 H         1 <0>         0.4273
     48 H17        -3.1816    2.5705    2.7319 H         1 <0>         0.1455
     49 H18        -4.3474    5.8786    5.1608 H         1 <0>         0.1504
     50 H19        -2.0047    6.2164    5.8345 H         1 <0>         0.1569
     51 H20        -5.2685   -4.6837   -0.5877 H         1 <0>         0.4539
     52 H21        -1.2380   -5.6295    0.9427 H         1 <0>         0.4681
@<TRIPOS>BOND
     1    1    6 ar
     2    1    2 ar
     3    1   32 1
     4    2    3 ar
     5    2   33 1
     6    3    4 ar
     7    3   23 1
     8    4    5 ar
     9    4   34 1
    10    5    6 ar
    11    5   35 1
    12    6    7 1
    13    7    8 1
    14    7   36 1
    15    8   12 1
    16    8    9 2
    17    9   10 1
    18    9   14 1
    19   10   11 am
    20   10   13 2
    21   11   12 1
    22   11   52 1
    23   14   15 2
    24   14   22 1
    25   15   16 1
    26   15   51 1
    27   16   17 1
    28   16   37 1
    29   16   38 1
    30   17   21 1
    31   17   18 1
    32   17   39 1
    33   18   19 1
    34   18   40 1
    35   18   41 1
    36   19   20 1
    37   19   42 1
    38   19   43 1
    39   20   21 1
    40   20   44 1
    41   20   45 1
    42   22   46 1
    43   22   47 1
    44   23   24 1
    45   24   29 ar
    46   24   25 ar
    47   25   26 ar
    48   25   48 1
    49   26   27 ar
    50   26   31 1
    51   27   28 ar
    52   27   49 1
    53   28   29 ar
    54   28   50 1
    55   29   30 1
@<TRIPOS>MOLECULE
CHEMBL30516
   61    64     0     0     0
SMALL
USER_CHARGES

@<TRIPOS>ATOM
      1 C1          5.1029    1.9588   -0.6572 C.3       1 <0>         0.0277
      2 O1          5.3955    0.5615   -0.7209 O.3       1 <0>        -0.3188
      3 C2          4.6729   -0.1810   -1.6015 C.ar      1 <0>         0.0877
      4 C3          3.7070    0.4259   -2.3909 C.ar      1 <0>        -0.1636
      5 C4          2.9727   -0.3273   -3.2855 C.ar      1 <0>        -0.1364
      6 C5          3.2014   -1.6929   -3.3948 C.ar      1 <0>         0.1660
      7 C6          4.1687   -2.2996   -2.6041 C.ar      1 <0>        -0.1383
      8 C7          4.9060   -1.5438   -1.7141 C.ar      1 <0>        -0.1057
      9 N1          2.4574   -2.4570   -4.3007 N.pl3     1 <0>        -0.7088
     10 C8          2.5983   -3.8299   -4.3244 C.ar      1 <0>         0.2702
     11 C9          3.5598   -4.4513   -5.1547 C.ar      1 <0>        -0.1007
     12 C10         4.4014   -3.6910   -5.9804 C.ar      1 <0>        -0.1561
     13 C11         5.3212   -4.3160   -6.7719 C.ar      1 <0>         0.1253
     14 C12         5.4336   -5.7136   -6.7686 C.ar      1 <0>         0.1592
     15 C13         4.6201   -6.4822   -5.9679 C.ar      1 <0>        -0.1782
     16 C14         3.6668   -5.8628   -5.1448 C.ar      1 <0>         0.1670
     17 N2          2.8662   -6.5954   -4.3567 N.ar      1 <0>        -0.4640
     18 C15         1.9688   -6.0470   -3.5781 C.ar      1 <0>         0.1794
     19 C16         1.7961   -4.6547   -3.5211 C.ar      1 <0>        -0.0921
     20 C17         0.8092   -4.0828   -2.6554 C.1       1 <0>         0.2567
     21 N3          0.0262   -3.6291   -1.9686 N.1       1 <0>        -0.3973
     22 O2          6.3553   -6.3154   -7.5648 O.3       1 <0>        -0.2927
     23 C18         6.4212   -7.7421   -7.5169 C.3       1 <0>         0.0549
     24 C19         7.5092   -8.2347   -8.4733 C.3       1 <0>        -0.1159
     25 C20         7.5798   -9.7622   -8.4220 C.3       1 <0>         0.0586
     26 N4          8.6244  -10.2352   -9.3403 N.3       1 <0>        -0.5364
     27 C21         8.2637   -9.9551  -10.7377 C.3       1 <0>         0.0125
     28 C22         9.4032  -10.4089  -11.6540 C.3       1 <0>         0.0624
     29 O3          9.6642  -11.7971  -11.4300 O.3       1 <0>        -0.3854
     30 C23        10.0191  -12.1056  -10.0794 C.3       1 <0>         0.0626
     31 C24         8.8859  -11.6690   -9.1471 C.3       1 <0>         0.0174
     32 O4          6.1357   -3.5765   -7.5712 O.3       1 <0>        -0.2984
     33 C25         5.9714   -2.1576   -7.5295 C.3       1 <0>         0.0226
     34 H1          5.2767    2.4113   -1.6335 H         1 <0>         0.0543
     35 H2          4.0603    2.0991   -0.3721 H         1 <0>         0.0543
     36 H3          5.7487    2.4319    0.0826 H         1 <0>         0.1000
     37 H4          3.5290    1.4877   -2.3055 H         1 <0>         0.1314
     38 H5          2.2204    0.1453   -3.8997 H         1 <0>         0.1272
     39 H6          4.3470   -3.3614   -2.6881 H         1 <0>         0.1260
     40 H7          5.6615   -2.0146   -1.1025 H         1 <0>         0.1336
     41 H8          1.8427   -2.0220   -4.9121 H         1 <0>         0.4165
     42 H9          4.3215   -2.6140   -5.9901 H         1 <0>         0.1489
     43 H10         4.7146   -7.5580   -5.9731 H         1 <0>         0.1557
     44 H11         1.3480   -6.6806   -2.9619 H         1 <0>         0.1730
     45 H12         6.6582   -8.0610   -6.5019 H         1 <0>         0.0710
     46 H13         5.4596   -8.1605   -7.8141 H         1 <0>         0.0683
     47 H14         7.2723   -7.9158   -9.4883 H         1 <0>         0.0764
     48 H15         8.4708   -7.8163   -8.1761 H         1 <0>         0.0865
     49 H16         7.8167  -10.0811   -7.4070 H         1 <0>         0.0818
     50 H17         6.6182  -10.1806   -8.7192 H         1 <0>         0.0405
     51 H18         7.3530  -10.4963  -10.9940 H         1 <0>         0.0446
     52 H19         8.0996   -8.8849  -10.8637 H         1 <0>         0.0904
     53 H20         9.1166  -10.2557  -12.6944 H         1 <0>         0.0992
     54 H21        10.3000   -9.8298  -11.4337 H         1 <0>         0.0611
     55 H22        10.1780  -13.1795   -9.9810 H         1 <0>         0.0997
     56 H23        10.9338  -11.5758   -9.8134 H         1 <0>         0.0611
     57 H24         9.1759  -11.8498   -8.1121 H         1 <0>         0.0883
     58 H25         7.9851  -12.2376   -9.3781 H         1 <0>         0.0448
     59 H26         4.9553   -1.9005   -7.8287 H         1 <0>         0.0579
     60 H27         6.1530   -1.8005   -6.5158 H         1 <0>         0.0596
     61 H28         6.6806   -1.6895   -8.2121 H         1 <0>         0.1065
@<TRIPOS>BOND
     1    1    2 1
     2    1   34 1
     3    1   35 1
     4    1   36 1
     5    2    3 1
     6    3    8 ar
     7    3    4 ar
     8    4    5 ar
     9    4   37 1
    10    5    6 ar
    11    5   38 1
    12    6    7 ar
    13    6    9 1
    14    7    8 ar
    15    7   39 1
    16    8   40 1
    17    9   10 1
    18    9   41 1
    19   10   19 ar
    20   10   11 ar
    21   11   16 ar
    22   11   12 ar
    23   12   13 ar
    24   12   42 1
    25   13   14 ar
    26   13   32 1
    27   14   15 ar
    28   14   22 1
    29   15   16 ar
    30   15   43 1
    31   16   17 ar
    32   17   18 ar
    33   18   19 ar
    34   18   44 1
    35   19   20 1
    36   20   21 3
    37   22   23 1
    38   23   24 1
    39   23   45 1
    40   23   46 1
    41   24   25 1
    42   24   47 1
    43   24   48 1
    44   25   26 1
    45   25   49 1
    46   25   50 1
    47   26   31 1
    48   26   27 1
    49   27   28 1
    50   27   51 1
    51   27   52 1
    52   28   29 1
    53   28   53 1
    54   28   54 1
    55   29   30 1
    56   30   31 1
    57   30   55 1
    58   30   56 1
    59   31   57 1
    60   31   58 1
    61   32   33 1
    62   33   59 1
    63   33   60 1
    64   33   61 1
@<TRIPOS>MOLECULE
CHEMBL30516__1
   62    65     0     0     0
SMALL
USER_CHARGES

@<TRIPOS>ATOM
      1 C1         -3.1670    1.8656   -4.0929 C.3       1 <0>         0.0267
      2 O1         -3.3333    0.4629   -4.3095 O.3       1 <0>        -0.3181
      3 C2         -3.7160   -0.2857   -3.2408 C.ar      1 <0>         0.0919
      4 C3         -3.9320    0.3202   -2.0117 C.ar      1 <0>        -0.1631
      5 C4         -4.3207   -0.4392   -0.9259 C.ar      1 <0>        -0.1330
      6 C5         -4.4953   -1.8101   -1.0646 C.ar      1 <0>         0.1611
      7 C6         -4.2789   -2.4159   -2.2955 C.ar      1 <0>        -0.1391
      8 C7         -3.8957   -1.6540   -3.3816 C.ar      1 <0>        -0.1075
      9 N1         -4.8888   -2.5805    0.0353 N.pl3     1 <0>        -0.7107
     10 C8         -4.9452   -3.9556   -0.0700 C.ar      1 <0>         0.2731
     11 C9         -6.1290   -4.6084   -0.4854 C.ar      1 <0>        -0.0974
     12 C10        -7.2836   -3.8780   -0.8042 C.ar      1 <0>        -0.1474
     13 C11        -8.4128   -4.5329   -1.2029 C.ar      1 <0>         0.1220
     14 C12        -8.4310   -5.9317   -1.2970 C.ar      1 <0>         0.1489
     15 C13        -7.3120   -6.6714   -0.9901 C.ar      1 <0>        -0.1704
     16 C14        -6.1384   -6.0209   -0.5782 C.ar      1 <0>         0.1615
     17 N2         -5.0376   -6.7251   -0.2763 N.ar      1 <0>        -0.4668
     18 C15        -3.9288   -6.1473    0.1097 C.ar      1 <0>         0.1847
     19 C16        -3.8281   -4.7516    0.2260 C.ar      1 <0>        -0.0821
     20 C17        -2.5997   -4.1472    0.6459 C.1       1 <0>         0.2488
     21 N3         -1.6252   -3.6677    0.9790 N.1       1 <0>        -0.3846
     22 O2         -9.5659   -6.5637   -1.6950 O.3       1 <0>        -0.2943
     23 C18        -9.5216   -7.9899   -1.7711 C.3       1 <0>         0.0566
     24 C19       -10.8809   -8.5185   -2.2334 C.3       1 <0>        -0.1505
     25 C20       -10.8335  -10.0456   -2.3149 C.3       1 <0>        -0.0061
     26 N4        -12.1386  -10.5530   -2.7588 N.4       1 <0>        -0.3842
     27 C21       -13.1540  -10.2504   -1.7407 C.3       1 <0>        -0.0501
     28 C22       -14.5129  -10.7799   -2.2056 C.3       1 <0>         0.0362
     29 O3        -14.4136  -12.1862   -2.4468 O.3       1 <0>        -0.3564
     30 C23       -13.4197  -12.5336   -3.4150 C.3       1 <0>         0.0355
     31 C24       -12.0588  -12.0074   -2.9523 C.3       1 <0>        -0.0433
     32 O4         -9.5304   -3.8223   -1.5112 O.3       1 <0>        -0.3027
     33 C25        -9.4478   -2.4004   -1.3948 C.3       1 <0>         0.0215
     34 H1         -2.8610    2.3432   -5.0236 H         1 <0>         0.1019
     35 H2         -4.1105    2.2957   -3.7568 H         1 <0>         0.0551
     36 H3         -2.4026    2.0277   -3.3329 H         1 <0>         0.0557
     37 H4         -3.7958    1.3861   -1.9040 H         1 <0>         0.1333
     38 H5         -4.4884    0.0327    0.0310 H         1 <0>         0.1284
     39 H6         -4.4141   -3.4818   -2.4042 H         1 <0>         0.1239
     40 H7         -3.7319   -2.1242   -4.3400 H         1 <0>         0.1337
     41 H8         -5.1218   -2.1482    0.8718 H         1 <0>         0.4179
     42 H9         -7.2790   -2.8003   -0.7339 H         1 <0>         0.1518
     43 H10        -7.3367   -7.7485   -1.0655 H         1 <0>         0.1531
     44 H11        -3.0692   -6.7587    0.3416 H         1 <0>         0.1761
     45 H12        -8.7531   -8.2921   -2.4826 H         1 <0>         0.0790
     46 H13        -9.2878   -8.3991   -0.7882 H         1 <0>         0.0785
     47 H14       -11.6493   -8.2163   -1.5219 H         1 <0>         0.1003
     48 H15       -11.1147   -8.1093   -3.2163 H         1 <0>         0.1013
     49 H16       -10.0650  -10.3477   -3.0264 H         1 <0>         0.1385
     50 H17       -10.5997  -10.4548   -1.3320 H         1 <0>         0.1362
     51 H18       -12.8799  -10.7286   -0.8003 H         1 <0>         0.1408
     52 H19       -13.2141   -9.1717   -1.5964 H         1 <0>         0.1447
     53 H20       -15.2593  -10.5949   -1.4331 H         1 <0>         0.1426
     54 H21       -14.8060  -10.2728   -3.1249 H         1 <0>         0.0819
     55 H22       -13.3750  -13.6179   -3.5177 H         1 <0>         0.1429
     56 H23       -13.6754  -12.0865   -4.3756 H         1 <0>         0.0819
     57 H24       -11.3059  -12.2330   -3.7075 H         1 <0>         0.1442
     58 H25       -11.7850  -12.4849   -2.0115 H         1 <0>         0.1403
     59 H26       -10.4050   -1.9572   -1.6693 H         1 <0>         0.1083
     60 H27        -9.2056   -2.1336   -0.3661 H         1 <0>         0.0603
     61 H28        -8.6699   -2.0260   -2.0601 H         1 <0>         0.0619
     62 H29       -12.3930  -10.1112   -3.6295 H         1 <0>         0.4247
@<TRIPOS>BOND
     1    1    2 1
     2    1   34 1
     3    1   35 1
     4    1   36 1
     5    2    3 1
     6    3    8 ar
     7    3    4 ar
     8    4    5 ar
     9    4   37 1
    10    5    6 ar
    11    5   38 1
    12    6    7 ar
    13    6    9 1
    14    7    8 ar
    15    7   39 1
    16    8   40 1
    17    9   10 1
    18    9   41 1
    19   10   19 ar
    20   10   11 ar
    21   11   16 ar
    22   11   12 ar
    23   12   13 ar
    24   12   42 1
    25   13   14 ar
    26   13   32 1
    27   14   15 ar
    28   14   22 1
    29   15   16 ar
    30   15   43 1
    31   16   17 ar
    32   17   18 ar
    33   18   19 ar
    34   18   44 1
    35   19   20 1
    36   20   21 3
    37   22   23 1
    38   23   24 1
    39   23   45 1
    40   23   46 1
    41   24   25 1
    42   24   47 1
    43   24   48 1
    44   25   26 1
    45   25   49 1
    46   25   50 1
    47   26   31 1
    48   26   27 1
    49   26   62 1
    50   27   28 1
    51   27   51 1
    52   27   52 1
    53   28   29 1
    54   28   53 1
    55   28   54 1
    56   29   30 1
    57   30   31 1
    58   30   55 1
    59   30   56 1
    60   31   57 1
    61   31   58 1
    62   32   33 1
    63   33   59 1
    64   33   60 1
    65   33   61 1
@<TRIPOS>MOLECULE
CHEMBL573577
   59    62     0     0     0
SMALL
USER_CHARGES

@<TRIPOS>ATOM
      1 C1         -0.4150    1.4143    0.0421 C.3       1 <0>        -0.0953
      2 C2         -0.1211   -0.0633    0.0078 C.2       1 <0>        -0.0505
      3 C3          0.0576   -0.8412   -1.1191 C.2       1 <0>        -0.0216
      4 N1          0.3054   -2.1349   -0.7093 N.pl3     1 <0>        -0.4947
      5 H1          0.4677   -2.8890   -1.2975 H         1 <0>         0.4238
      6 C4          0.2863   -2.1856    0.6331 C.2       1 <0>         0.1143
      7 C5          0.0303   -0.9171    1.1214 C.2       1 <0>        -0.2295
      8 C6         -0.0687   -0.5296    2.5403 C.2       1 <0>         0.5975
      9 O1         -1.1426   -0.5743    3.1093 O.2       1 <0>        -0.5341
     10 N2          1.0308   -0.1259    3.2070 N.am      1 <0>        -0.7173
     11 C7          0.9324    0.2591    4.6170 C.3       1 <0>         0.0869
     12 C8          2.3130    0.6733    5.1302 C.3       1 <0>         0.1023
     13 C9          2.2353    0.9555    6.6319 C.3       1 <0>         0.0237
     14 N3          3.5608    1.3532    7.1247 N.3       1 <0>        -0.5251
     15 C10         4.5132    0.2369    7.0341 C.3       1 <0>         0.0145
     16 C11         5.8923    0.7107    7.5004 C.3       1 <0>         0.0636
     17 O2          5.7889    1.2277    8.8298 O.3       1 <0>        -0.3856
     18 C12         4.8702    2.3167    8.9542 C.3       1 <0>         0.0634
     19 C13         3.4807    1.8591    8.5027 C.3       1 <0>         0.0168
     20 O3          2.7417    1.8520    4.4455 O.3       1 <0>        -0.5429
     21 C14         0.5128   -3.4191    1.4687 C.3       1 <0>        -0.0996
     22 C15        -0.0030   -0.3914   -2.4562 C.2       1 <0>         0.0881
     23 C16        -0.5015   -1.2202   -3.4414 C.2       1 <0>        -0.2047
     24 C17        -0.4951   -0.9862   -4.9027 C.ar      1 <0>        -0.0667
     25 C18        -0.0270    0.0538   -5.6996 C.ar      1 <0>        -0.1023
     26 C19        -0.1699   -0.0177   -7.0724 C.ar      1 <0>         0.0827
     27 C20        -0.7775   -1.1223   -7.6507 C.ar      1 <0>        -0.1181
     28 C21        -1.2444   -2.1579   -6.8672 C.ar      1 <0>        -0.1046
     29 C22        -1.1094   -2.1033   -5.4843 C.ar      1 <0>         0.1293
     30 N4         -1.4846   -2.9913   -4.4820 N.am      1 <0>        -0.6490
     31 C23        -1.1474   -2.5281   -3.2664 C.2       1 <0>         0.5576
     32 O4         -1.3452   -3.0925   -2.2052 O.2       1 <0>        -0.5096
     33 F1          0.2823    0.9891   -7.8515 F         1 <0>        -0.1345
     34 H2          0.5220    1.9706    0.0666 H         1 <0>         0.0766
     35 H3         -0.9799    1.6932   -0.8475 H         1 <0>         0.0700
     36 H4         -0.9997    1.6480    0.9318 H         1 <0>         0.0708
     37 H5          1.8874   -0.0902    2.7531 H         1 <0>         0.4063
     38 H6          0.2412    1.0960    4.7178 H         1 <0>         0.0735
     39 H7          0.5667   -0.5863    5.1998 H         1 <0>         0.0763
     40 H8          3.0248   -0.1319    4.9482 H         1 <0>         0.1043
     41 H9          1.5234    1.7607    6.8139 H         1 <0>         0.0847
     42 H10         1.9082    0.0564    7.1542 H         1 <0>         0.0486
     43 H11         4.1757   -0.5819    7.6695 H         1 <0>         0.0428
     44 H12         4.5759   -0.1052    6.0011 H         1 <0>         0.0882
     45 H13         6.5883   -0.1281    7.4892 H         1 <0>         0.0984
     46 H14         6.2533    1.4930    6.8327 H         1 <0>         0.0620
     47 H15         4.8269    2.6394    9.9944 H         1 <0>         0.0990
     48 H16         5.2015    3.1456    8.3287 H         1 <0>         0.0615
     49 H17         2.7897    2.7012    8.5416 H         1 <0>         0.0873
     50 H18         3.1267    1.0662    9.1615 H         1 <0>         0.0435
     51 H19         2.1541    2.6109    4.5632 H         1 <0>         0.3766
     52 H20         1.5751   -3.5164    1.6924 H         1 <0>         0.0822
     53 H21        -0.0483   -3.3355    2.3994 H         1 <0>         0.0869
     54 H22         0.1754   -4.2976    0.9186 H         1 <0>         0.0766
     55 H23         0.3406    0.6010   -2.7081 H         1 <0>         0.1572
     56 H24         0.4456    0.9132   -5.2475 H         1 <0>         0.1429
     57 H25        -0.8866   -1.1722   -8.7240 H         1 <0>         0.1457
     58 H26        -1.7162   -3.0126   -7.3291 H         1 <0>         0.1394
     59 H27        -1.9293   -3.8386   -4.6405 H         1 <0>         0.4199
@<TRIPOS>BOND
     1    1    2 1
     2    1   34 1
     3    1   35 1
     4    1   36 1
     5    2    7 1
     6    2    3 2
     7    3    4 1
     8    3   22 1
     9    4    5 1
    10    4    6 1
    11    6    7 2
    12    6   21 1
    13    7    8 1
    14    8    9 2
    15    8   10 am
    16   10   11 1
    17   10   37 1
    18   11   12 1
    19   11   38 1
    20   11   39 1
    21   12   13 1
    22   12   20 1
    23   12   40 1
    24   13   14 1
    25   13   41 1
    26   13   42 1
    27   14   19 1
    28   14   15 1
    29   15   16 1
    30   15   43 1
    31   15   44 1
    32   16   17 1
    33   16   45 1
    34   16   46 1
    35   17   18 1
    36   18   19 1
    37   18   47 1
    38   18   48 1
    39   19   49 1
    40   19   50 1
    41   20   51 1
    42   21   52 1
    43   21   53 1
    44   21   54 1
    45   22   23 2
    46   22   55 1
    47   23   31 1
    48   23   24 1
    49   24   29 ar
    50   24   25 ar
    51   25   26 ar
    52   25   56 1
    53   26   27 ar
    54   26   33 1
    55   27   28 ar
    56   27   57 1
    57   28   29 ar
    58   28   58 1
    59   29   30 1
    60   30   31 am
    61   30   59 1
    62   31   32 2
@<TRIPOS>MOLECULE
CHEMBL573577__1
   60    63     0     0     0
SMALL
USER_CHARGES

@<TRIPOS>ATOM
      1 C1         -0.4150    1.4143    0.0421 C.3       1 <0>        -0.0940
      2 C2         -0.1211   -0.0633    0.0078 C.2       1 <0>        -0.0571
      3 C3          0.0576   -0.8412   -1.1191 C.2       1 <0>        -0.0098
      4 N1          0.3054   -2.1349   -0.7093 N.pl3     1 <0>        -0.4925
      5 H1          0.4677   -2.8890   -1.2975 H         1 <0>         0.4259
      6 C4          0.2863   -2.1856    0.6331 C.2       1 <0>         0.1126
      7 C5          0.0303   -0.9171    1.1214 C.2       1 <0>        -0.2380
      8 C6         -0.0687   -0.5296    2.5403 C.2       1 <0>         0.6058
      9 O1         -1.1426   -0.5743    3.1093 O.2       1 <0>        -0.5238
     10 N2          1.0308   -0.1259    3.2070 N.am      1 <0>        -0.7252
     11 C7          0.9324    0.2591    4.6170 C.3       1 <0>         0.0914
     12 C8          2.3130    0.6733    5.1302 C.3       1 <0>         0.0721
     13 C9          2.2353    0.9555    6.6319 C.3       1 <0>        -0.0432
     14 N3          3.5608    1.3532    7.1247 N.4       1 <0>        -0.3805
     15 C10         4.4924    0.2248    6.9899 C.3       1 <0>        -0.0490
     16 C11         5.8727    0.6417    7.5037 C.3       1 <0>         0.0371
     17 O2          5.7600    1.0704    8.8636 O.3       1 <0>        -0.3561
     18 C12         4.8445    2.1534    9.0499 C.3       1 <0>         0.0358
     19 C13         3.4623    1.7394    8.5389 C.3       1 <0>        -0.0441
     20 O3          2.7417    1.8520    4.4455 O.3       1 <0>        -0.5500
     21 C14         0.5128   -3.4191    1.4687 C.3       1 <0>        -0.0996
     22 C15        -0.0030   -0.3914   -2.4562 C.2       1 <0>         0.0728
     23 C16        -0.5015   -1.2202   -3.4414 C.2       1 <0>        -0.1889
     24 C17        -0.4951   -0.9862   -4.9027 C.ar      1 <0>        -0.0737
     25 C18        -0.0270    0.0538   -5.6996 C.ar      1 <0>        -0.1000
     26 C19        -0.1699   -0.0177   -7.0724 C.ar      1 <0>         0.0843
     27 C20        -0.7775   -1.1223   -7.6507 C.ar      1 <0>        -0.1139
     28 C21        -1.2444   -2.1579   -6.8672 C.ar      1 <0>        -0.1028
     29 C22        -1.1094   -2.1033   -5.4843 C.ar      1 <0>         0.1304
     30 N4         -1.4846   -2.9913   -4.4820 N.am      1 <0>        -0.6474
     31 C23        -1.1474   -2.5281   -3.2664 C.2       1 <0>         0.5577
     32 O4         -1.3452   -3.0925   -2.2052 O.2       1 <0>        -0.5109
     33 F1          0.2823    0.9891   -7.8515 F         1 <0>        -0.1327
     34 H2          0.5220    1.9706    0.0666 H         1 <0>         0.0741
     35 H3         -0.9799    1.6932   -0.8475 H         1 <0>         0.0725
     36 H4         -0.9997    1.6480    0.9318 H         1 <0>         0.0683
     37 H5          1.8874   -0.0902    2.7531 H         1 <0>         0.4084
     38 H6          0.2412    1.0960    4.7178 H         1 <0>         0.0831
     39 H7          0.5667   -0.5863    5.1998 H         1 <0>         0.0875
     40 H8          3.0248   -0.1319    4.9482 H         1 <0>         0.1307
     41 H9          1.5234    1.7607    6.8139 H         1 <0>         0.1416
     42 H10         1.9082    0.0564    7.1542 H         1 <0>         0.1459
     43 H11         4.1270   -0.6200    7.5737 H         1 <0>         0.1402
     44 H12         4.5663   -0.0624    5.9410 H         1 <0>         0.1426
     45 H13         6.5545   -0.2067    7.4448 H         1 <0>         0.1427
     46 H14         6.2558    1.4604    6.8946 H         1 <0>         0.0826
     47 H15         4.7821    2.3991   10.1100 H         1 <0>         0.1432
     48 H16         5.1924    3.0239    8.4936 H         1 <0>         0.0819
     49 H17         2.7715    2.5765    8.6400 H         1 <0>         0.1434
     50 H18         3.0973    0.8939    9.1222 H         1 <0>         0.1401
     51 H19         2.1541    2.6109    4.5632 H         1 <0>         0.3940
     52 H20         1.5751   -3.5164    1.6924 H         1 <0>         0.0806
     53 H21        -0.0483   -3.3355    2.3994 H         1 <0>         0.0850
     54 H22         0.1754   -4.2976    0.9186 H         1 <0>         0.0793
     55 H23         0.3406    0.6010   -2.7081 H         1 <0>         0.1581
     56 H24         0.4456    0.9132   -5.2475 H         1 <0>         0.1429
     57 H25        -0.8866   -1.1722   -8.7240 H         1 <0>         0.1481
     58 H26        -1.7162   -3.0126   -7.3291 H         1 <0>         0.1415
     59 H27        -1.9293   -3.8386   -4.6405 H         1 <0>         0.4219
     60 H28         3.8996    2.1356    6.5850 H         1 <0>         0.4276
@<TRIPOS>BOND
     1    1    2 1
     2    1   34 1
     3    1   35 1
     4    1   36 1
     5    2    7 1
     6    2    3 2
     7    3    4 1
     8    3   22 1
     9    4    5 1
    10    4    6 1
    11    6    7 2
    12    6   21 1
    13    7    8 1
    14    8    9 2
    15    8   10 am
    16   10   11 1
    17   10   37 1
    18   11   12 1
    19   11   38 1
    20   11   39 1
    21   12   13 1
    22   12   20 1
    23   12   40 1
    24   13   14 1
    25   13   41 1
    26   13   42 1
    27   14   19 1
    28   14   15 1
    29   14   60 1
    30   15   16 1
    31   15   43 1
    32   15   44 1
    33   16   17 1
    34   16   45 1
    35   16   46 1
    36   17   18 1
    37   18   19 1
    38   18   47 1
    39   18   48 1
    40   19   49 1
    41   19   50 1
    42   20   51 1
    43   21   52 1
    44   21   53 1
    45   21   54 1
    46   22   23 2
    47   22   55 1
    48   23   31 1
    49   23   24 1
    50   24   29 ar
    51   24   25 ar
    52   25   26 ar
    53   25   56 1
    54   26   27 ar
    55   26   33 1
    56   27   28 ar
    57   27   57 1
    58   28   29 ar
    59   28   58 1
    60   29   30 1
    61   30   31 am
    62   30   59 1
    63   31   32 2
@<TRIPOS>MOLECULE
CHEMBL573577__2
   59    62     0     0     0
SMALL
USER_CHARGES

@<TRIPOS>ATOM
      1 C1         -0.3941    0.9532    0.0400 C.3       1 <0>        -0.0945
      2 C2          0.3369   -0.3548   -0.1209 C.2       1 <0>        -0.0553
      3 C3          0.6757   -0.9675   -1.3112 C.2       1 <0>        -0.0184
      4 N1          1.3340   -2.1427   -1.0136 N.pl3     1 <0>        -0.4967
      5 H1          1.6833   -2.7712   -1.6647 H         1 <0>         0.4221
      6 C4          1.4147   -2.2794    0.3205 C.2       1 <0>         0.1139
      7 C5          0.8122   -1.1860    0.9159 C.2       1 <0>        -0.2278
      8 C6          0.6872   -0.9368    2.3635 C.2       1 <0>         0.5974
      9 O1         -0.2834   -1.3482    2.9697 O.2       1 <0>        -0.5345
     10 N2          1.6486   -0.2531    3.0151 N.am      1 <0>        -0.7169
     11 C7          1.5244   -0.0054    4.4536 C.3       1 <0>         0.0862
     12 C8          2.7400    0.7850    4.9419 C.3       1 <0>         0.1049
     13 C9          2.6103    1.0436    6.4443 C.3       1 <0>         0.0236
     14 N3          3.7423    1.8614    6.9000 N.3       1 <0>        -0.5260
     15 C10         3.9171    1.7547    8.3558 C.3       1 <0>         0.0175
     16 C11         5.1403    2.5725    8.7788 C.3       1 <0>         0.0632
     17 O2          4.9730    3.9270    8.3514 O.3       1 <0>        -0.3854
     18 C12         4.8008    4.0678    6.9386 C.3       1 <0>         0.0633
     19 C13         3.5741    3.2652    6.4970 C.3       1 <0>         0.0152
     20 O3          3.9293    0.0344    4.6888 O.3       1 <0>        -0.5433
     21 C14         2.0608   -3.4304    1.0478 C.3       1 <0>        -0.0988
     22 C15         0.3969   -0.4773   -2.6057 C.2       1 <0>         0.0835
     23 C16         0.0228   -1.3496   -3.6084 C.2       1 <0>        -0.1964
     24 C17        -0.1559   -1.0453   -5.0456 C.ar      1 <0>        -0.0696
     25 C18        -0.0193    0.1168   -5.7983 C.ar      1 <0>        -0.1009
     26 C19        -0.2625    0.0844   -7.1583 C.ar      1 <0>         0.0818
     27 C20        -0.6409   -1.1025   -7.7680 C.ar      1 <0>        -0.1168
     28 C21        -0.7786   -2.2595   -7.0284 C.ar      1 <0>        -0.1056
     29 C22        -0.5381   -2.2458   -5.6590 C.ar      1 <0>         0.1317
     30 N4         -0.6025   -3.2490   -4.6980 N.am      1 <0>        -0.6503
     31 C23        -0.2777   -2.7820   -3.4805 C.2       1 <0>         0.5563
     32 O4         -0.2416   -3.4319   -2.4507 O.2       1 <0>        -0.5044
     33 F1         -0.1320    1.2097   -7.8945 F         1 <0>        -0.1345
     34 H2          0.3262    1.7707    0.0703 H         1 <0>         0.0749
     35 H3         -1.0714    1.0968   -0.8019 H         1 <0>         0.0698
     36 H4         -0.9658    0.9381    0.9679 H         1 <0>         0.0703
     37 H5          2.4229    0.0750    2.5315 H         1 <0>         0.4070
     38 H6          0.6172    0.5671    4.6467 H         1 <0>         0.0764
     39 H7          1.4731   -0.9569    4.9830 H         1 <0>         0.0722
     40 H8          2.7913    1.7365    4.4126 H         1 <0>         0.1045
     41 H9          1.6775    1.5715    6.6429 H         1 <0>         0.0510
     42 H10         2.6106    0.0932    6.9780 H         1 <0>         0.0829
     43 H11         3.0300    2.1405    8.8581 H         1 <0>         0.0434
     44 H12         4.0655    0.7100    8.6289 H         1 <0>         0.0871
     45 H13         5.2404    2.5429    9.8638 H         1 <0>         0.0990
     46 H14         6.0351    2.1535    8.3185 H         1 <0>         0.0615
     47 H15         4.6553    5.1197    6.6928 H         1 <0>         0.0988
     48 H16         5.6857    3.6923    6.4249 H         1 <0>         0.0618
     49 H17         3.4721    3.3231    5.4133 H         1 <0>         0.0867
     50 H18         2.6815    3.6751    6.9696 H         1 <0>         0.0439
     51 H19         3.9527   -0.8260    5.1295 H         1 <0>         0.3749
     52 H20         3.1133   -3.2061    1.2207 H         1 <0>         0.0831
     53 H21         1.5600   -3.5830    2.0039 H         1 <0>         0.0864
     54 H22         1.9762   -4.3346    0.4450 H         1 <0>         0.0756
     55 H23         0.4762    0.5799   -2.8115 H         1 <0>         0.1562
     56 H24         0.2751    1.0402   -5.3217 H         1 <0>         0.1428
     57 H25        -0.8299   -1.1215   -8.8311 H         1 <0>         0.1458
     58 H26        -1.0742   -3.1776   -7.5144 H         1 <0>         0.1396
     59 H27        -0.8467   -4.1692   -4.8836 H         1 <0>         0.4200
@<TRIPOS>BOND
     1    1    2 1
     2    1   34 1
     3    1   35 1
     4    1   36 1
     5    2    7 1
     6    2    3 2
     7    3    4 1
     8    3   22 1
     9    4    5 1
    10    4    6 1
    11    6    7 2
    12    6   21 1
    13    7    8 1
    14    8    9 2
    15    8   10 am
    16   10   11 1
    17   10   37 1
    18   11   12 1
    19   11   38 1
    20   11   39 1
    21   12   13 1
    22   12   20 1
    23   12   40 1
    24   13   14 1
    25   13   41 1
    26   13   42 1
    27   14   19 1
    28   14   15 1
    29   15   16 1
    30   15   43 1
    31   15   44 1
    32   16   17 1
    33   16   45 1
    34   16   46 1
    35   17   18 1
    36   18   19 1
    37   18   47 1
    38   18   48 1
    39   19   49 1
    40   19   50 1
    41   20   51 1
    42   21   52 1
    43   21   53 1
    44   21   54 1
    45   22   23 2
    46   22   55 1
    47   23   31 1
    48   23   24 1
    49   24   29 ar
    50   24   25 ar
    51   25   26 ar
    52   25   56 1
    53   26   27 ar
    54   26   33 1
    55   27   28 ar
    56   27   57 1
    57   28   29 ar
    58   28   58 1
    59   29   30 1
    60   30   31 am
    61   30   59 1
    62   31   32 2
@<TRIPOS>MOLECULE
CHEMBL573577__3
   60    63     0     0     0
SMALL
USER_CHARGES

@<TRIPOS>ATOM
      1 C1         -1.7254    0.5415    1.0994 C.3       1 <0>        -0.0933
      2 C2         -1.0351   -0.7773    0.8641 C.2       1 <0>        -0.0616
      3 C3         -0.9727   -1.4727   -0.3273 C.2       1 <0>        -0.0059
      4 N1         -0.2490   -2.6269   -0.1098 N.pl3     1 <0>        -0.4950
      5 H1         -0.0516   -3.3006   -0.7792 H         1 <0>         0.4242
      6 C4          0.1392   -2.6706    1.1757 C.2       1 <0>         0.1122
      7 C5         -0.3231   -1.5361    1.8177 C.2       1 <0>        -0.2363
      8 C6         -0.1137   -1.1861    3.2343 C.2       1 <0>         0.6057
      9 O1         -0.9131   -1.5505    4.0752 O.2       1 <0>        -0.5240
     10 N2          0.9636   -0.4623    3.5975 N.am      1 <0>        -0.7250
     11 C7          1.1717   -0.1145    5.0053 C.3       1 <0>         0.0910
     12 C8          2.4573    0.7033    5.1440 C.3       1 <0>         0.0719
     13 C9          2.6746    1.0665    6.6143 C.3       1 <0>        -0.0429
     14 N3          3.8430    1.9489    6.7331 N.4       1 <0>        -0.3811
     15 C10         4.1390    2.1814    8.1535 C.3       1 <0>        -0.0439
     16 C11         5.3568    3.1009    8.2747 C.3       1 <0>         0.0358
     17 O2          5.0929    4.3262    7.5856 O.3       1 <0>        -0.3559
     18 C12         4.7755    4.1497    6.2022 C.3       1 <0>         0.0371
     19 C13         3.5566    3.2322    6.0772 C.3       1 <0>        -0.0497
     20 O3          3.5653   -0.0677    4.6750 O.3       1 <0>        -0.5497
     21 C14         0.9498   -3.7706    1.8113 C.3       1 <0>        -0.0990
     22 C15        -1.5488   -1.0729   -1.5528 C.2       1 <0>         0.0676
     23 C16        -2.1383   -2.0106   -2.3769 C.2       1 <0>        -0.1804
     24 C17        -2.6475   -1.8075   -3.7515 C.ar      1 <0>        -0.0768
     25 C18        -2.6979   -0.7030   -4.5960 C.ar      1 <0>        -0.0986
     26 C19        -3.2494   -0.8295   -5.8569 C.ar      1 <0>         0.0832
     27 C20        -3.7498   -2.0533   -6.2763 C.ar      1 <0>        -0.1125
     28 C21        -3.7035   -3.1535   -5.4446 C.ar      1 <0>        -0.1039
     29 C22        -3.1523   -3.0450   -4.1727 C.ar      1 <0>         0.1329
     30 N4         -2.9847   -3.9768   -3.1541 N.am      1 <0>        -0.6489
     31 C23        -2.3902   -3.4276   -2.0813 C.2       1 <0>         0.5562
     32 O4         -2.1116   -4.0031   -1.0444 O.2       1 <0>        -0.5055
     33 F1         -3.3016    0.2395   -6.6813 F         1 <0>        -0.1327
     34 H2         -1.0277    1.3563    0.9062 H         1 <0>         0.0726
     35 H3         -2.5805    0.6287    0.4290 H         1 <0>         0.0723
     36 H4         -2.0673    0.5934    2.1331 H         1 <0>         0.0681
     37 H5          1.6012   -0.1717    2.9268 H         1 <0>         0.4090
     38 H6          0.3266    0.4736    5.3630 H         1 <0>         0.0878
     39 H7          1.2558   -1.0266    5.5963 H         1 <0>         0.0823
     40 H8          2.3732    1.6153    4.5530 H         1 <0>         0.1303
     41 H9          1.7918    1.5792    6.9962 H         1 <0>         0.1459
     42 H10         2.8453    0.1579    7.1916 H         1 <0>         0.1415
     43 H11         3.2796    2.6513    8.6318 H         1 <0>         0.1403
     44 H12         4.3517    1.2301    8.6411 H         1 <0>         0.1432
     45 H13         5.5521    3.3095    9.3265 H         1 <0>         0.1432
     46 H14         6.2258    2.6142    7.8320 H         1 <0>         0.0819
     47 H15         4.5502    5.1174    5.7541 H         1 <0>         0.1430
     48 H16         5.6247    3.6989    5.6885 H         1 <0>         0.0825
     49 H17         3.3370    3.0609    5.0233 H         1 <0>         0.1424
     50 H18         2.6975    3.7017    6.5562 H         1 <0>         0.1409
     51 H19         3.7003   -0.8954    5.1564 H         1 <0>         0.3940
     52 H20         2.0110   -3.5388    1.7204 H         1 <0>         0.0812
     53 H21         0.6852   -3.8543    2.8654 H         1 <0>         0.0845
     54 H22         0.7396   -4.7142    1.3079 H         1 <0>         0.0784
     55 H23        -1.5282   -0.0335   -1.8455 H         1 <0>         0.1572
     56 H24        -2.3081    0.2492   -4.2676 H         1 <0>         0.1429
     57 H25        -4.1798   -2.1458   -7.2626 H         1 <0>         0.1481
     58 H26        -4.0967   -4.1010   -5.7824 H         1 <0>         0.1416
     59 H27        -3.2583   -4.9056   -3.2121 H         1 <0>         0.4218
     60 H28         4.6389    1.5149    6.2902 H         1 <0>         0.4278
@<TRIPOS>BOND
     1    1    2 1
     2    1   34 1
     3    1   35 1
     4    1   36 1
     5    2    7 1
     6    2    3 2
     7    3    4 1
     8    3   22 1
     9    4    5 1
    10    4    6 1
    11    6    7 2
    12    6   21 1
    13    7    8 1
    14    8    9 2
    15    8   10 am
    16   10   11 1
    17   10   37 1
    18   11   12 1
    19   11   38 1
    20   11   39 1
    21   12   13 1
    22   12   20 1
    23   12   40 1
    24   13   14 1
    25   13   41 1
    26   13   42 1
    27   14   19 1
    28   14   15 1
    29   14   60 1
    30   15   16 1
    31   15   43 1
    32   15   44 1
    33   16   17 1
    34   16   45 1
    35   16   46 1
    36   17   18 1
    37   18   19 1
    38   18   47 1
    39   18   48 1
    40   19   49 1
    41   19   50 1
    42   20   51 1
    43   21   52 1
    44   21   53 1
    45   21   54 1
    46   22   23 2
    47   22   55 1
    48   23   31 1
    49   23   24 1
    50   24   29 ar
    51   24   25 ar
    52   25   26 ar
    53   25   56 1
    54   26   27 ar
    55   26   33 1
    56   27   28 ar
    57   27   57 1
    58   28   29 ar
    59   28   58 1
    60   29   30 1
    61   30   31 am
    62   30   59 1
    63   31   32 2
@<TRIPOS>MOLECULE
CHEMBL524111
   73    77     0     0     0
SMALL
USER_CHARGES

@<TRIPOS>ATOM
      1 C1          8.1858   -2.2830    3.1010 C.3       1 <0>         0.0693
      2 N1          6.9633   -1.7155    3.6752 N.pl3     1 <0>        -0.4475
      3 C2          6.7409   -0.3926    3.9830 C.2       1 <0>        -0.0445
      4 C3          5.4966   -0.3106    4.4848 C.2       1 <0>        -0.0193
      5 N2          4.9607   -1.5423    4.4896 N.2       1 <0>        -0.4770
      6 C4          5.8297   -2.3956    3.9999 C.2       1 <0>         0.1734
      7 S1          5.5742   -4.1277    3.8014 S.3       1 <0>         0.0920
      8 C5          3.9965   -4.4123    4.5325 C.ar      1 <0>        -0.1668
      9 C6          2.8863   -4.6298    3.7262 C.ar      1 <0>         0.0016
     10 C7          1.6503   -4.8528    4.2988 C.ar      1 <0>        -0.1824
     11 C8          1.5158   -4.8600    5.6816 C.ar      1 <0>         0.2452
     12 C9          2.6254   -4.6431    6.4887 C.ar      1 <0>        -0.1840
     13 C10         3.8635   -4.4251    5.9162 C.ar      1 <0>         0.0719
     14 Cl1         5.2518   -4.1605    6.9243 Cl        1 <0>        -0.0424
     15 N3          0.2624   -5.0852    6.2615 N.pl3     1 <0>        -0.6978
     16 C11         0.0996   -4.9546    7.6258 C.ar      1 <0>         0.2455
     17 C12         0.3608   -6.0366    8.4997 C.ar      1 <0>        -0.0658
     18 C13         0.7939   -7.2751    8.0035 C.ar      1 <0>        -0.1870
     19 C14         1.0405   -8.3054    8.8635 C.ar      1 <0>         0.1519
     20 C15         0.8631   -8.1367   10.2510 C.ar      1 <0>        -0.0423
     21 C16         0.4361   -6.9222   10.7626 C.ar      1 <0>        -0.0579
     22 C17         0.1790   -5.8538    9.8921 C.ar      1 <0>         0.1252
     23 N4         -0.2347   -4.6701   10.3698 N.ar      1 <0>        -0.4532
     24 C18        -0.4832   -3.6537    9.5847 C.ar      1 <0>         0.1720
     25 C19        -0.3245   -3.7433    8.1920 C.ar      1 <0>        -0.0640
     26 C20        -0.5978   -2.6115    7.3584 C.1       1 <0>         0.2442
     27 N5         -0.8147   -1.7136    6.6971 N.1       1 <0>        -0.3782
     28 C21         1.1338   -9.2631   11.1667 C.2       1 <0>        -0.0946
     29 C22         0.9683   -9.1097   12.4740 C.2       1 <0>        -0.1544
     30 C23         1.2446  -10.2593   13.4085 C.3       1 <0>        -0.0856
     31 C24         2.2548   -9.8215   14.4709 C.3       1 <0>         0.0577
     32 N6          2.5241  -10.9421   15.3818 N.3       1 <0>        -0.5402
     33 C25         1.3279  -11.2840   16.1642 C.3       1 <0>         0.0195
     34 C26         1.6322  -12.4907   17.0547 C.3       1 <0>        -0.0028
     35 N7          2.7495  -12.1679   17.9520 N.4       1 <0>        -0.3885
     36 C27         3.9433  -11.8526   17.1564 C.3       1 <0>        -0.0025
     37 C28         3.6582  -10.6406   16.2668 C.3       1 <0>         0.0249
     38 C29         3.0295  -13.3202   18.8190 C.3       1 <0>        -0.0458
     39 O1          1.4599   -9.5031    8.3782 O.3       1 <0>        -0.3070
     40 C30         1.6197   -9.6092    6.9621 C.3       1 <0>         0.0224
     41 H1          8.1206   -2.2610    2.0132 H         1 <0>         0.0815
     42 H2          9.0457   -1.6968    3.4253 H         1 <0>         0.0911
     43 H3          8.3009   -3.3134    3.4374 H         1 <0>         0.0887
     44 H4          7.4345    0.4242    3.8478 H         1 <0>         0.1788
     45 H5          5.0108    0.5915    4.8261 H         1 <0>         0.1712
     46 H6          2.9902   -4.6240    2.6513 H         1 <0>         0.1466
     47 H7          0.7873   -5.0215    3.6717 H         1 <0>         0.1393
     48 H8          2.5207   -4.6483    7.5636 H         1 <0>         0.1339
     49 H9         -0.4921   -5.3331    5.7045 H         1 <0>         0.4226
     50 H10         0.9319   -7.4133    6.9413 H         1 <0>         0.1429
     51 H11         0.3016   -6.7991   11.8271 H         1 <0>         0.1520
     52 H12        -0.8141   -2.7216   10.0184 H         1 <0>         0.1766
     53 H13         1.4665  -10.2118   10.7721 H         1 <0>         0.1307
     54 H14         0.6357   -8.1610   12.8686 H         1 <0>         0.1184
     55 H15         0.3172  -10.5647   13.8930 H         1 <0>         0.0753
     56 H16         1.6521  -11.0973   12.8430 H         1 <0>         0.0828
     57 H17         3.1823   -9.5161   13.9864 H         1 <0>         0.0916
     58 H18         1.8473   -8.9835   15.0363 H         1 <0>         0.0499
     59 H19         1.0454  -10.4348   16.7865 H         1 <0>         0.0614
     60 H20         0.5086  -11.5284   15.4881 H         1 <0>         0.1258
     61 H21         0.7506  -12.7371   17.6464 H         1 <0>         0.1354
     62 H22         1.9015  -13.3434   16.4315 H         1 <0>         0.1375
     63 H23         4.7750  -11.6260   17.8235 H         1 <0>         0.1356
     64 H24         4.2007  -12.7086   16.5327 H         1 <0>         0.1376
     65 H25         4.5390  -10.4156   15.6654 H         1 <0>         0.1240
     66 H26         3.4140   -9.7809   16.8907 H         1 <0>         0.0610
     67 H27         3.2935  -14.1812   18.2050 H         1 <0>         0.1231
     68 H28         3.8585  -13.0809   19.4850 H         1 <0>         0.1241
     69 H29         2.1441  -13.5535   19.4104 H         1 <0>         0.1241
     70 H30         0.6656   -9.4129    6.4730 H         1 <0>         0.0599
     71 H31         2.3577   -8.8817    6.6242 H         1 <0>         0.0612
     72 H32         1.9578  -10.6141    6.7089 H         1 <0>         0.1077
     73 H33         2.5045  -11.3712   18.5207 H         1 <0>         0.4225
@<TRIPOS>BOND
     1    1    2 1
     2    1   41 1
     3    1   42 1
     4    1   43 1
     5    2    6 1
     6    2    3 1
     7    3    4 2
     8    3   44 1
     9    4    5 1
    10    4   45 1
    11    5    6 2
    12    6    7 1
    13    7    8 1
    14    8   13 ar
    15    8    9 ar
    16    9   10 ar
    17    9   46 1
    18   10   11 ar
    19   10   47 1
    20   11   12 ar
    21   11   15 1
    22   12   13 ar
    23   12   48 1
    24   13   14 1
    25   15   16 1
    26   15   49 1
    27   16   25 ar
    28   16   17 ar
    29   17   22 ar
    30   17   18 ar
    31   18   19 ar
    32   18   50 1
    33   19   20 ar
    34   19   39 1
    35   20   21 ar
    36   20   28 1
    37   21   22 ar
    38   21   51 1
    39   22   23 ar
    40   23   24 ar
    41   24   25 ar
    42   24   52 1
    43   25   26 1
    44   26   27 3
    45   28   29 2
    46   28   53 1
    47   29   30 1
    48   29   54 1
    49   30   31 1
    50   30   55 1
    51   30   56 1
    52   31   32 1
    53   31   57 1
    54   31   58 1
    55   32   37 1
    56   32   33 1
    57   33   34 1
    58   33   59 1
    59   33   60 1
    60   34   35 1
    61   34   61 1
    62   34   62 1
    63   35   36 1
    64   35   38 1
    65   35   73 1
    66   36   37 1
    67   36   63 1
    68   36   64 1
    69   37   65 1
    70   37   66 1
    71   38   67 1
    72   38   68 1
    73   38   69 1
    74   39   40 1
    75   40   70 1
    76   40   71 1
    77   40   72 1
@<TRIPOS>MOLECULE
CHEMBL524111__1
   73    77     0     0     0
SMALL
USER_CHARGES

@<TRIPOS>ATOM
      1 C1          8.1859   -2.2830    3.1011 C.3       1 <0>         0.0691
      2 N1          6.9633   -1.7155    3.6752 N.pl3     1 <0>        -0.4473
      3 C2          6.7409   -0.3925    3.9831 C.2       1 <0>        -0.0435
      4 C3          5.4966   -0.3106    4.4847 C.2       1 <0>        -0.0194
      5 N2          4.9606   -1.5423    4.4896 N.2       1 <0>        -0.4772
      6 C4          5.8297   -2.3956    3.9999 C.2       1 <0>         0.1727
      7 S1          5.5742   -4.1276    3.8014 S.3       1 <0>         0.0925
      8 C5          3.9965   -4.4123    4.5324 C.ar      1 <0>        -0.1657
      9 C6          2.8863   -4.6298    3.7262 C.ar      1 <0>         0.0018
     10 C7          1.6503   -4.8528    4.2988 C.ar      1 <0>        -0.1815
     11 C8          1.5158   -4.8600    5.6816 C.ar      1 <0>         0.2437
     12 C9          2.6254   -4.6431    6.4887 C.ar      1 <0>        -0.1844
     13 C10         3.8635   -4.4251    5.9162 C.ar      1 <0>         0.0714
     14 Cl1         5.2518   -4.1605    6.9243 Cl        1 <0>        -0.0420
     15 N3          0.2624   -5.0852    6.2615 N.pl3     1 <0>        -0.6985
     16 C11         0.0996   -4.9546    7.6258 C.ar      1 <0>         0.2454
     17 C12         0.3608   -6.0366    8.4997 C.ar      1 <0>        -0.0620
     18 C13         0.7939   -7.2751    8.0035 C.ar      1 <0>        -0.1846
     19 C14         1.0405   -8.3054    8.8635 C.ar      1 <0>         0.1523
     20 C15         0.8631   -8.1367   10.2510 C.ar      1 <0>        -0.0563
     21 C16         0.4361   -6.9222   10.7626 C.ar      1 <0>        -0.0478
     22 C17         0.1790   -5.8538    9.8921 C.ar      1 <0>         0.1214
     23 N4         -0.2347   -4.6701   10.3698 N.ar      1 <0>        -0.4523
     24 C18        -0.4832   -3.6537    9.5847 C.ar      1 <0>         0.1743
     25 C19        -0.3245   -3.7433    8.1920 C.ar      1 <0>        -0.0585
     26 C20        -0.5978   -2.6115    7.3584 C.1       1 <0>         0.2413
     27 N5         -0.8147   -1.7136    6.6971 N.1       1 <0>        -0.3731
     28 C21         1.1338   -9.2631   11.1667 C.2       1 <0>        -0.0665
     29 C22         0.9683   -9.1097   12.4740 C.2       1 <0>        -0.1759
     30 C23         1.2446  -10.2593   13.4085 C.3       1 <0>        -0.1097
     31 C24         2.2548   -9.8215   14.4709 C.3       1 <0>        -0.0066
     32 N6          2.5241  -10.9421   15.3818 N.4       1 <0>        -0.3872
     33 C25         1.3000  -11.2764   16.1216 C.3       1 <0>        -0.0071
     34 C26         1.5751  -12.4559   17.0569 C.3       1 <0>         0.0245
     35 N7          2.6502  -12.0955   17.9920 N.3       1 <0>        -0.5437
     36 C27         3.8752  -11.7342   17.2647 C.3       1 <0>         0.0240
     37 C28         3.5812  -10.5606   16.3276 C.3       1 <0>        -0.0020
     38 C29         2.9055  -13.1836   18.9453 C.3       1 <0>         0.0194
     39 O1          1.4599   -9.5031    8.3782 O.3       1 <0>        -0.3093
     40 C30         1.6197   -9.6092    6.9621 C.3       1 <0>         0.0220
     41 H1          8.1206   -2.2610    2.0133 H         1 <0>         0.0818
     42 H2          9.0457   -1.6968    3.4255 H         1 <0>         0.0915
     43 H3          8.3009   -3.3134    3.4375 H         1 <0>         0.0886
     44 H4          7.4344    0.4242    3.8478 H         1 <0>         0.1792
     45 H5          5.0108    0.5916    4.8261 H         1 <0>         0.1715
     46 H6          2.9902   -4.6240    2.6513 H         1 <0>         0.1471
     47 H7          0.7873   -5.0215    3.6717 H         1 <0>         0.1397
     48 H8          2.5207   -4.6483    7.5636 H         1 <0>         0.1332
     49 H9         -0.4921   -5.3331    5.7046 H         1 <0>         0.4232
     50 H10         0.9319   -7.4133    6.9413 H         1 <0>         0.1443
     51 H11         0.3016   -6.7991   11.8271 H         1 <0>         0.1531
     52 H12        -0.8141   -2.7216   10.0184 H         1 <0>         0.1784
     53 H13         1.4665  -10.2118   10.7721 H         1 <0>         0.1324
     54 H14         0.6357   -8.1610   12.8686 H         1 <0>         0.1288
     55 H15         0.3172  -10.5647   13.8930 H         1 <0>         0.0971
     56 H16         1.6521  -11.0973   12.8430 H         1 <0>         0.0907
     57 H17         3.1823   -9.5161   13.9864 H         1 <0>         0.1338
     58 H18         1.8473   -8.9835   15.0363 H         1 <0>         0.1338
     59 H19         0.9829  -10.4140   16.7079 H         1 <0>         0.1388
     60 H20         0.5126  -11.5466   15.4179 H         1 <0>         0.1370
     61 H21         0.6709  -12.6945   17.6169 H         1 <0>         0.1235
     62 H22         1.8791  -13.3224   16.4697 H         1 <0>         0.0602
     63 H23         4.6491  -11.4463   17.9762 H         1 <0>         0.1237
     64 H24         4.2171  -12.5889   16.6809 H         1 <0>         0.0603
     65 H25         4.4850  -10.3003   15.7768 H         1 <0>         0.1362
     66 H26         3.2524   -9.7019   16.9129 H         1 <0>         0.1383
     67 H27         3.2013  -14.0809   18.4017 H         1 <0>         0.0394
     68 H28         3.7053  -12.8906   19.6254 H         1 <0>         0.0839
     69 H29         1.9994  -13.3867   19.5160 H         1 <0>         0.0844
     70 H30         2.3577   -8.8817    6.6242 H         1 <0>         0.0623
     71 H31         1.9578  -10.6141    6.7089 H         1 <0>         0.1086
     72 H32         0.6656   -9.4129    6.4730 H         1 <0>         0.0612
     73 H33         2.8239  -11.7443   14.8483 H         1 <0>         0.4202
@<TRIPOS>BOND
     1    1    2 1
     2    1   41 1
     3    1   42 1
     4    1   43 1
     5    2    6 1
     6    2    3 1
     7    3    4 2
     8    3   44 1
     9    4    5 1
    10    4   45 1
    11    5    6 2
    12    6    7 1
    13    7    8 1
    14    8   13 ar
    15    8    9 ar
    16    9   10 ar
    17    9   46 1
    18   10   11 ar
    19   10   47 1
    20   11   12 ar
    21   11   15 1
    22   12   13 ar
    23   12   48 1
    24   13   14 1
    25   15   16 1
    26   15   49 1
    27   16   25 ar
    28   16   17 ar
    29   17   22 ar
    30   17   18 ar
    31   18   19 ar
    32   18   50 1
    33   19   20 ar
    34   19   39 1
    35   20   21 ar
    36   20   28 1
    37   21   22 ar
    38   21   51 1
    39   22   23 ar
    40   23   24 ar
    41   24   25 ar
    42   24   52 1
    43   25   26 1
    44   26   27 3
    45   28   29 2
    46   28   53 1
    47   29   30 1
    48   29   54 1
    49   30   31 1
    50   30   55 1
    51   30   56 1
    52   31   32 1
    53   31   57 1
    54   31   58 1
    55   32   37 1
    56   32   33 1
    57   32   73 1
    58   33   34 1
    59   33   59 1
    60   33   60 1
    61   34   35 1
    62   34   61 1
    63   34   62 1
    64   35   36 1
    65   35   38 1
    66   36   37 1
    67   36   63 1
    68   36   64 1
    69   37   65 1
    70   37   66 1
    71   38   67 1
    72   38   68 1
    73   38   69 1
    74   39   40 1
    75   40   70 1
    76   40   71 1
    77   40   72 1
@<TRIPOS>MOLECULE
CHEMBL30728
   70    74     0     0     0
SMALL
USER_CHARGES

@<TRIPOS>ATOM
      1 C1         -2.0121    1.4392   -6.0977 C.3       1 <0>         0.0230
      2 O1         -1.9859    0.0107   -6.1265 O.3       1 <0>        -0.2981
      3 C2         -0.8672   -0.5960   -5.6475 C.ar      1 <0>         0.1256
      4 C3          0.1597    0.1630   -5.1645 C.ar      1 <0>        -0.1556
      5 C4          1.3149   -0.4600   -4.6697 C.ar      1 <0>        -0.1005
      6 C5          1.4125   -1.8726   -4.6727 C.ar      1 <0>         0.1669
      7 C6          0.3439   -2.6307   -5.1748 C.ar      1 <0>        -0.1785
      8 C7         -0.7813   -1.9951   -5.6489 C.ar      1 <0>         0.1595
      9 O2         -1.8172   -2.7314   -6.1286 O.3       1 <0>        -0.2925
     10 C8         -1.6696   -4.1526   -6.1034 C.3       1 <0>         0.0549
     11 C9         -2.9274   -4.8063   -6.6790 C.3       1 <0>        -0.1159
     12 C10        -2.7693   -6.3279   -6.6520 C.3       1 <0>         0.0586
     13 N1         -3.9770   -6.9556   -7.2047 N.3       1 <0>        -0.5363
     14 C11        -5.1394   -6.7158   -6.3372 C.3       1 <0>         0.0125
     15 C12        -6.3844   -7.3343   -6.9789 C.3       1 <0>         0.0624
     16 O3         -6.1557   -8.7278   -7.2049 O.3       1 <0>        -0.3853
     17 C13        -5.0312   -8.9976   -8.0464 C.3       1 <0>         0.0626
     18 C14        -3.7726   -8.3961   -7.4156 C.3       1 <0>         0.0174
     19 N2          2.5140   -2.4746   -4.2003 N.ar      1 <0>        -0.4639
     20 C15         3.5263   -1.7948   -3.7255 C.ar      1 <0>         0.1795
     21 C16         3.5155   -0.3913   -3.6835 C.ar      1 <0>        -0.0920
     22 C17         2.3935    0.3014   -4.1631 C.ar      1 <0>         0.2694
     23 N3          2.3438    1.6811   -4.1402 N.pl3     1 <0>        -0.7078
     24 C18         2.7364    2.4130   -5.2639 C.ar      1 <0>         0.1990
     25 C19         3.0482    1.7569   -6.4481 C.ar      1 <0>        -0.1753
     26 C20         3.4359    2.4833   -7.5567 C.ar      1 <0>        -0.0678
     27 C21         3.5144    3.8624   -7.4889 C.ar      1 <0>        -0.1169
     28 C22         3.2048    4.5187   -6.3117 C.ar      1 <0>        -0.0688
     29 C23         2.8104    3.7988   -5.2011 C.ar      1 <0>        -0.1740
     30 C24         3.9389    4.6517   -8.7004 C.3       1 <0>        -0.0386
     31 C25         2.7240    5.0122   -9.5159 C.ar      1 <0>        -0.0743
     32 C26         2.2791    4.1584  -10.5079 C.ar      1 <0>        -0.1153
     33 C27         1.1647    4.4892  -11.2560 C.ar      1 <0>        -0.1176
     34 C28         0.4949    5.6735  -11.0118 C.ar      1 <0>        -0.1249
     35 C29         0.9392    6.5269  -10.0192 C.ar      1 <0>        -0.1181
     36 C30         2.0511    6.1941   -9.2683 C.ar      1 <0>        -0.1156
     37 C31         4.6379    0.3255   -3.1572 C.1       1 <0>         0.2563
     38 N4          5.5283    0.8941   -2.7397 N.1       1 <0>        -0.3968
     39 H1         -1.9098    1.7838   -5.0687 H         1 <0>         0.0577
     40 H2         -1.1884    1.8298   -6.6953 H         1 <0>         0.0597
     41 H3         -2.9580    1.7936   -6.5072 H         1 <0>         0.1066
     42 H4          0.0829    1.2402   -5.1636 H         1 <0>         0.1484
     43 H5          0.4018   -3.7091   -5.1845 H         1 <0>         0.1557
     44 H6         -0.8049   -4.4387   -6.7021 H         1 <0>         0.0709
     45 H7         -1.5256   -4.4846   -5.0752 H         1 <0>         0.0683
     46 H8         -3.7921   -4.5202   -6.0803 H         1 <0>         0.0765
     47 H9         -3.0714   -4.4742   -7.7072 H         1 <0>         0.0864
     48 H10        -1.9046   -6.6140   -7.2507 H         1 <0>         0.0817
     49 H11        -2.6253   -6.6600   -5.6238 H         1 <0>         0.0405
     50 H12        -4.9669   -7.1730   -5.3629 H         1 <0>         0.0446
     51 H13        -5.2876   -5.6429   -6.2155 H         1 <0>         0.0904
     52 H14        -7.2377   -7.2089   -6.3124 H         1 <0>         0.0993
     53 H15        -6.5879   -6.8400   -7.9288 H         1 <0>         0.0611
     54 H16        -4.9059  -10.0752   -8.1520 H         1 <0>         0.0997
     55 H17        -5.1954   -8.5517   -9.0274 H         1 <0>         0.0611
     56 H18        -2.9230   -8.5496   -8.0810 H         1 <0>         0.0883
     57 H19        -3.5782   -8.8801   -6.4585 H         1 <0>         0.0448
     58 H20         4.3910   -2.3263   -3.3565 H         1 <0>         0.1731
     59 H21         2.0364    2.1422   -3.3442 H         1 <0>         0.4167
     60 H22         2.9878    0.6799   -6.5015 H         1 <0>         0.1188
     61 H23         3.6784    1.9739   -8.4776 H         1 <0>         0.1225
     62 H24         3.2675    5.5957   -6.2620 H         1 <0>         0.1238
     63 H25         2.5641    4.3123   -4.2834 H         1 <0>         0.1235
     64 H26         4.4457    5.5624   -8.3815 H         1 <0>         0.0809
     65 H27         4.6177    4.0510   -9.3059 H         1 <0>         0.0806
     66 H28         2.8024    3.2331  -10.6987 H         1 <0>         0.1196
     67 H29         0.8175    3.8225  -12.0314 H         1 <0>         0.1210
     68 H30        -0.3754    5.9323  -11.5967 H         1 <0>         0.1203
     69 H31         0.4161    7.4523   -9.8286 H         1 <0>         0.1208
     70 H32         2.3961    6.8591   -8.4903 H         1 <0>         0.1197
@<TRIPOS>BOND
     1    1    2 1
     2    1   39 1
     3    1   40 1
     4    1   41 1
     5    2    3 1
     6    3    8 ar
     7    3    4 ar
     8    4    5 ar
     9    4   42 1
    10    5   22 ar
    11    5    6 ar
    12    6    7 ar
    13    6   19 ar
    14    7    8 ar
    15    7   43 1
    16    8    9 1
    17    9   10 1
    18   10   11 1
    19   10   44 1
    20   10   45 1
    21   11   12 1
    22   11   46 1
    23   11   47 1
    24   12   13 1
    25   12   48 1
    26   12   49 1
    27   13   18 1
    28   13   14 1
    29   14   15 1
    30   14   50 1
    31   14   51 1
    32   15   16 1
    33   15   52 1
    34   15   53 1
    35   16   17 1
    36   17   18 1
    37   17   54 1
    38   17   55 1
    39   18   56 1
    40   18   57 1
    41   19   20 ar
    42   20   21 ar
    43   20   58 1
    44   21   22 ar
    45   21   37 1
    46   22   23 1
    47   23   24 1
    48   23   59 1
    49   24   29 ar
    50   24   25 ar
    51   25   26 ar
    52   25   60 1
    53   26   27 ar
    54   26   61 1
    55   27   28 ar
    56   27   30 1
    57   28   29 ar
    58   28   62 1
    59   29   63 1
    60   30   31 1
    61   30   64 1
    62   30   65 1
    63   31   36 ar
    64   31   32 ar
    65   32   33 ar
    66   32   66 1
    67   33   34 ar
    68   33   67 1
    69   34   35 ar
    70   34   68 1
    71   35   36 ar
    72   35   69 1
    73   36   70 1
    74   37   38 3
@<TRIPOS>MOLECULE
CHEMBL30728__1
   71    75     0     0     0
SMALL
USER_CHARGES

@<TRIPOS>ATOM
      1 C1          6.2687    1.5106    1.3365 C.3       1 <0>         0.0217
      2 O1          6.3028    0.0820    1.3450 O.3       1 <0>        -0.3023
      3 C2          5.3384   -0.5542    2.0621 C.ar      1 <0>         0.1223
      4 C3          4.3951    0.1770    2.7249 C.ar      1 <0>        -0.1468
      5 C4          3.3991   -0.4765    3.4652 C.ar      1 <0>        -0.0971
      6 C5          3.3749   -1.8910    3.5230 C.ar      1 <0>         0.1614
      7 C6          4.3556   -2.6204    2.8336 C.ar      1 <0>        -0.1706
      8 C7          5.3185   -1.9550    2.1092 C.ar      1 <0>         0.1491
      9 O2          6.2631   -2.6635    1.4374 O.3       1 <0>        -0.2941
     10 C8          6.1896   -4.0879    1.5241 C.3       1 <0>         0.0566
     11 C9          7.3269   -4.7079    0.7098 C.3       1 <0>        -0.1505
     12 C10         7.2481   -6.2330    0.8028 C.3       1 <0>        -0.0060
     13 N1          8.3401   -6.8283    0.0209 N.4       1 <0>        -0.3843
     14 C11         8.1503   -6.5162   -1.4023 C.3       1 <0>        -0.0502
     15 C12         9.2894   -7.1373   -2.2147 C.3       1 <0>         0.0361
     16 O3          9.3169   -8.5488   -1.9855 O.3       1 <0>        -0.3563
     17 C13         9.4761   -8.9037   -0.6091 C.3       1 <0>         0.0355
     18 C14         8.3374   -8.2859    0.2063 C.3       1 <0>        -0.0433
     19 N2          2.4247   -2.5221    4.2285 N.ar      1 <0>        -0.4666
     20 C15         1.4970   -1.8697    4.8811 C.ar      1 <0>         0.1848
     21 C16         1.4442   -0.4665    4.8788 C.ar      1 <0>        -0.0820
     22 C17         2.4094    0.2558    4.1610 C.ar      1 <0>         0.2721
     23 N3          2.3930    1.6362    4.1342 N.pl3     1 <0>        -0.7097
     24 C18         3.1585    2.3620    5.0505 C.ar      1 <0>         0.1949
     25 C19         4.0385    1.7024    5.8994 C.ar      1 <0>        -0.1766
     26 C20         4.7935    2.4228    6.8038 C.ar      1 <0>        -0.0688
     27 C21         4.6741    3.7991    6.8655 C.ar      1 <0>        -0.1126
     28 C22         3.7991    4.4589    6.0220 C.ar      1 <0>        -0.0677
     29 C23         3.0455    3.7453    5.1109 C.ar      1 <0>        -0.1711
     30 C24         5.4990    4.5818    7.8545 C.3       1 <0>        -0.0404
     31 C25         6.8067    4.9756    7.2175 C.ar      1 <0>        -0.0747
     32 C26         7.9014    4.1367    7.3112 C.ar      1 <0>        -0.1161
     33 C27         9.1010    4.4979    6.7269 C.ar      1 <0>        -0.1186
     34 C28         9.2058    5.6978    6.0486 C.ar      1 <0>        -0.1245
     35 C29         8.1108    6.5363    5.9541 C.ar      1 <0>        -0.1170
     36 C30         6.9100    6.1731    6.5347 C.ar      1 <0>        -0.1148
     37 C31         0.4163    0.2201    5.6019 C.1       1 <0>         0.2483
     38 N4         -0.3991    0.7647    6.1754 N.1       1 <0>        -0.3841
     39 H1          6.3686    1.8825    2.3563 H         1 <0>         0.0620
     40 H2          7.0906    1.8901    0.7293 H         1 <0>         0.1084
     41 H3          5.3211    1.8490    0.9176 H         1 <0>         0.0601
     42 H4          4.4160    1.2559    2.6795 H         1 <0>         0.1514
     43 H5          4.3518   -3.6999    2.8671 H         1 <0>         0.1531
     44 H6          6.2804   -4.3936    2.5664 H         1 <0>         0.0789
     45 H7          5.2324   -4.4271    1.1281 H         1 <0>         0.0785
     46 H8          7.2360   -4.4022   -0.3325 H         1 <0>         0.1004
     47 H9          8.2841   -4.3687    1.1058 H         1 <0>         0.1014
     48 H10         7.3390   -6.5387    1.8451 H         1 <0>         0.1385
     49 H11         6.2909   -6.5722    0.4068 H         1 <0>         0.1362
     50 H12         7.1979   -6.9247   -1.7403 H         1 <0>         0.1408
     51 H13         8.1523   -5.4351   -1.5410 H         1 <0>         0.1447
     52 H14         9.1277   -6.9438   -3.2752 H         1 <0>         0.1427
     53 H15        10.2383   -6.6996   -1.9047 H         1 <0>         0.0819
     54 H16         9.4496   -9.9886   -0.5074 H         1 <0>         0.1430
     55 H17        10.4314   -8.5265   -0.2441 H         1 <0>         0.0818
     56 H18         8.4782   -8.5185    1.2618 H         1 <0>         0.1442
     57 H19         7.3849   -8.6937   -0.1323 H         1 <0>         0.1403
     58 H20         0.7536   -2.4240    5.4348 H         1 <0>         0.1763
     59 H21         1.8500    2.1021    3.4792 H         1 <0>         0.4182
     60 H22         4.1317    0.6275    5.8522 H         1 <0>         0.1167
     61 H23         5.4778    1.9106    7.4640 H         1 <0>         0.1227
     62 H24         3.7080    5.5338    6.0730 H         1 <0>         0.1258
     63 H25         2.3659    4.2616    4.4491 H         1 <0>         0.1249
     64 H26         4.9552    5.4784    8.1521 H         1 <0>         0.0826
     65 H27         5.6934    3.9664    8.7329 H         1 <0>         0.0815
     66 H28         7.8196    3.1992    7.8412 H         1 <0>         0.1188
     67 H29         9.9565    3.8428    6.8007 H         1 <0>         0.1203
     68 H30        10.1432    5.9804    5.5927 H         1 <0>         0.1207
     69 H31         8.1928    7.4739    5.4245 H         1 <0>         0.1219
     70 H32         6.0535    6.8265    6.4578 H         1 <0>         0.1206
     71 H33         9.2222   -6.4510    0.3335 H         1 <0>         0.4246
@<TRIPOS>BOND
     1    1    2 1
     2    1   39 1
     3    1   40 1
     4    1   41 1
     5    2    3 1
     6    3    8 ar
     7    3    4 ar
     8    4    5 ar
     9    4   42 1
    10    5   22 ar
    11    5    6 ar
    12    6    7 ar
    13    6   19 ar
    14    7    8 ar
    15    7   43 1
    16    8    9 1
    17    9   10 1
    18   10   11 1
    19   10   44 1
    20   10   45 1
    21   11   12 1
    22   11   46 1
    23   11   47 1
    24   12   13 1
    25   12   48 1
    26   12   49 1
    27   13   18 1
    28   13   14 1
    29   13   71 1
    30   14   15 1
    31   14   50 1
    32   14   51 1
    33   15   16 1
    34   15   52 1
    35   15   53 1
    36   16   17 1
    37   17   18 1
    38   17   54 1
    39   17   55 1
    40   18   56 1
    41   18   57 1
    42   19   20 ar
    43   20   21 ar
    44   20   58 1
    45   21   22 ar
    46   21   37 1
    47   22   23 1
    48   23   24 1
    49   23   59 1
    50   24   29 ar
    51   24   25 ar
    52   25   26 ar
    53   25   60 1
    54   26   27 ar
    55   26   61 1
    56   27   28 ar
    57   27   30 1
    58   28   29 ar
    59   28   62 1
    60   29   63 1
    61   30   31 1
    62   30   64 1
    63   30   65 1
    64   31   36 ar
    65   31   32 ar
    66   32   33 ar
    67   32   66 1
    68   33   34 ar
    69   33   67 1
    70   34   35 ar
    71   34   68 1
    72   35   36 ar
    73   35   69 1
    74   36   70 1
    75   37   38 3
@<TRIPOS>MOLECULE
CHEMBL521320
   69    73     0     0     0
SMALL
USER_CHARGES

@<TRIPOS>ATOM
      1 C1        -14.4965   -5.9074   -5.8351 C.3       1 <0>        -0.1892
      2 C2        -13.1138   -6.4707   -5.5005 C.3       1 <0>        -0.0096
      3 N1        -13.1874   -7.2389   -4.2506 N.4       1 <0>        -0.3875
      4 C3        -13.5203   -6.3366   -3.1405 C.3       1 <0>        -0.0059
      5 C4        -13.6156   -7.1395   -1.8413 C.3       1 <0>         0.0255
      6 N2        -12.3309   -7.8060   -1.5853 N.3       1 <0>        -0.5353
      7 C5        -11.9723   -8.6941   -2.7001 C.3       1 <0>         0.0216
      8 C6        -11.8905   -7.8783   -3.9922 C.3       1 <0>        -0.0022
      9 C7        -12.3640   -8.5428   -0.3149 C.3       1 <0>         0.0863
     10 C8        -10.9726   -9.0042    0.0347 C.2       1 <0>        -0.1528
     11 C9        -10.4430   -8.6844    1.2079 C.2       1 <0>        -0.0878
     12 C10        -9.0790   -9.1366    1.5506 C.ar      1 <0>        -0.0316
     13 C11        -8.3459   -9.9003    0.6272 C.ar      1 <0>        -0.1084
     14 C12        -7.0891  -10.3258    0.9231 C.ar      1 <0>        -0.0728
     15 C13        -6.5122  -10.0028    2.1611 C.ar      1 <0>        -0.1066
     16 C14        -7.2386   -9.2337    3.1026 C.ar      1 <0>         0.1537
     17 C15        -8.5313   -8.7992    2.7780 C.ar      1 <0>        -0.0786
     18 N3         -6.6912   -8.9218    4.2866 N.ar      1 <0>        -0.4609
     19 C16        -5.4850   -9.3076    4.6165 C.ar      1 <0>         0.1869
     20 C17        -4.6932  -10.0723    3.7454 C.ar      1 <0>        -0.0760
     21 C18        -5.2060  -10.4345    2.4900 C.ar      1 <0>         0.2619
     22 N4         -4.4601  -11.1859    1.6056 N.pl3     1 <0>        -0.7002
     23 C19        -4.5955  -12.5785    1.5833 C.ar      1 <0>         0.2463
     24 C20        -5.5775  -13.1932    2.3501 C.ar      1 <0>        -0.1871
     25 C21        -5.7113  -14.5669    2.3290 C.ar      1 <0>         0.0024
     26 C22        -4.8639  -15.3355    1.5409 C.ar      1 <0>        -0.1662
     27 C23        -3.8814  -14.7208    0.7731 C.ar      1 <0>         0.0710
     28 C24        -3.7517  -13.3456    0.7902 C.ar      1 <0>        -0.1795
     29 Cl1        -2.8219  -15.6807   -0.2116 Cl        1 <0>        -0.0381
     30 S1         -5.0340  -17.0890    1.5148 S.3       1 <0>         0.0949
     31 C25        -5.8021  -17.4198   -0.0361 C.2       1 <0>         0.1764
     32 N5         -6.2272  -16.5183   -0.8903 N.2       1 <0>        -0.4795
     33 C26        -6.7558  -17.1348   -1.9603 C.2       1 <0>        -0.0226
     34 C27        -6.6604  -18.4625   -1.7736 C.2       1 <0>        -0.0451
     35 N6         -6.0502  -18.6537   -0.5548 N.pl3     1 <0>        -0.4463
     36 C28        -5.7313  -19.9410    0.0677 C.3       1 <0>         0.0679
     37 C29        -3.3763  -10.4792    4.1337 C.1       1 <0>         0.2451
     38 N7         -2.3316  -10.8019    4.4418 N.1       1 <0>        -0.3799
     39 H1        -14.4418   -5.3373   -6.7625 H         1 <0>         0.1070
     40 H2        -15.2040   -6.7279   -5.9541 H         1 <0>         0.0798
     41 H3        -14.8285   -5.2556   -5.0270 H         1 <0>         0.0804
     42 H4        -12.7817   -7.1224   -6.3086 H         1 <0>         0.1306
     43 H5        -12.4063   -5.6501   -5.3815 H         1 <0>         0.1300
     44 H6        -12.7431   -5.5786   -3.0429 H         1 <0>         0.1379
     45 H7        -14.4766   -5.8529   -3.3396 H         1 <0>         0.1368
     46 H8        -13.8479   -6.4679   -1.0148 H         1 <0>         0.1244
     47 H9        -14.4019   -7.8887   -1.9336 H         1 <0>         0.0612
     48 H10       -11.0057   -9.1566   -2.5002 H         1 <0>         0.1240
     49 H11       -12.7315   -9.4689   -2.8066 H         1 <0>         0.0618
     50 H12       -11.6386   -8.5377   -4.8228 H         1 <0>         0.1354
     51 H13       -11.1217   -7.1124   -3.8903 H         1 <0>         0.1377
     52 H14       -12.7394   -7.8907    0.4737 H         1 <0>         0.0953
     53 H15       -13.0196   -9.4080   -0.4137 H         1 <0>         0.0592
     54 H16       -10.4067   -9.5953   -0.6701 H         1 <0>         0.1179
     55 H17       -11.0090   -8.0933    1.9127 H         1 <0>         0.1280
     56 H18        -8.7851  -10.1521   -0.3269 H         1 <0>         0.1304
     57 H19        -6.5347  -10.9127    0.2057 H         1 <0>         0.1360
     58 H20        -9.0986   -8.2083    3.4819 H         1 <0>         0.1469
     59 H21        -5.0889   -9.0305    5.5823 H         1 <0>         0.1780
     60 H22        -3.8419  -10.7490    0.9992 H         1 <0>         0.4221
     61 H23        -6.2362  -12.5961    2.9633 H         1 <0>         0.1312
     62 H24        -6.4746  -15.0443    2.9255 H         1 <0>         0.1444
     63 H25        -2.9912  -12.8673    0.1908 H         1 <0>         0.1414
     64 H26        -7.1846  -16.6469   -2.8231 H         1 <0>         0.1696
     65 H27        -6.9951  -19.2327   -2.4527 H         1 <0>         0.1778
     66 H28        -6.5727  -20.2673    0.6790 H         1 <0>         0.0820
     67 H29        -5.5372  -20.6816   -0.7082 H         1 <0>         0.0919
     68 H30        -4.8468  -19.8319    0.6953 H         1 <0>         0.0903
     69 H31       -13.9010   -7.9475   -4.3331 H         1 <0>         0.4201
@<TRIPOS>BOND
     1    1    2 1
     2    1   39 1
     3    1   40 1
     4    1   41 1
     5    2    3 1
     6    2   42 1
     7    2   43 1
     8    3    8 1
     9    3    4 1
    10    3   69 1
    11    4    5 1
    12    4   44 1
    13    4   45 1
    14    5    6 1
    15    5   46 1
    16    5   47 1
    17    6    7 1
    18    6    9 1
    19    7    8 1
    20    7   48 1
    21    7   49 1
    22    8   50 1
    23    8   51 1
    24    9   10 1
    25    9   52 1
    26    9   53 1
    27   10   11 2
    28   10   54 1
    29   11   12 1
    30   11   55 1
    31   12   17 ar
    32   12   13 ar
    33   13   14 ar
    34   13   56 1
    35   14   15 ar
    36   14   57 1
    37   15   21 ar
    38   15   16 ar
    39   16   17 ar
    40   16   18 ar
    41   17   58 1
    42   18   19 ar
    43   19   20 ar
    44   19   59 1
    45   20   21 ar
    46   20   37 1
    47   21   22 1
    48   22   23 1
    49   22   60 1
    50   23   28 ar
    51   23   24 ar
    52   24   25 ar
    53   24   61 1
    54   25   26 ar
    55   25   62 1
    56   26   27 ar
    57   26   30 1
    58   27   28 ar
    59   27   29 1
    60   28   63 1
    61   30   31 1
    62   31   35 1
    63   31   32 2
    64   32   33 1
    65   33   34 2
    66   33   64 1
    67   34   35 1
    68   34   65 1
    69   35   36 1
    70   36   66 1
    71   36   67 1
    72   36   68 1
    73   37   38 3
@<TRIPOS>MOLECULE
CHEMBL521320__1
   69    73     0     0     0
SMALL
USER_CHARGES

@<TRIPOS>ATOM
      1 C1         13.2261   -4.4762   -9.5015 C.3       1 <0>        -0.1555
      2 C2         12.2300   -4.9946   -8.4622 C.3       1 <0>         0.0501
      3 N1         11.2373   -5.8536   -9.1213 N.3       1 <0>        -0.5400
      4 C3         10.3984   -5.0765  -10.0447 C.3       1 <0>         0.0214
      5 C4          9.4198   -6.0157  -10.7532 C.3       1 <0>        -0.0024
      6 N2          8.5816   -6.6932   -9.7553 N.4       1 <0>        -0.3852
      7 C5          9.4312   -7.4846   -8.8557 C.3       1 <0>        -0.0039
      8 C6         10.4099   -6.5576   -8.1314 C.3       1 <0>         0.0254
      9 C7          7.6302   -7.5810  -10.4369 C.3       1 <0>         0.0368
     10 C8          6.6900   -8.1822   -9.4241 C.2       1 <0>        -0.2384
     11 C9          5.3789   -8.0529   -9.5776 C.2       1 <0>        -0.0230
     12 C10         4.4573   -8.6422   -8.5848 C.ar      1 <0>        -0.0605
     13 C11         4.9759   -9.3333   -7.4773 C.ar      1 <0>        -0.1067
     14 C12         4.1447   -9.8825   -6.5522 C.ar      1 <0>        -0.0696
     15 C13         2.7542   -9.7618   -6.6987 C.ar      1 <0>        -0.0987
     16 C14         2.2159   -9.0680   -7.8098 C.ar      1 <0>         0.1477
     17 C15         3.0885   -8.5037   -8.7509 C.ar      1 <0>        -0.0578
     18 N3          0.8878   -8.9492   -7.9537 N.ar      1 <0>        -0.4589
     19 C16         0.0480   -9.4598   -7.0896 C.ar      1 <0>         0.1898
     20 C17         0.4924  -10.1629   -5.9588 C.ar      1 <0>        -0.0663
     21 C18         1.8707  -10.3248   -5.7483 C.ar      1 <0>         0.2617
     22 N4          2.3480  -11.0097   -4.6500 N.pl3     1 <0>        -0.7015
     23 C19         2.6393  -12.3748   -4.7491 C.ar      1 <0>         0.2435
     24 C20         2.5818  -13.0094   -5.9837 C.ar      1 <0>        -0.1879
     25 C21         2.8686  -14.3561   -6.0820 C.ar      1 <0>         0.0022
     26 C22         3.2149  -15.0774   -4.9465 C.ar      1 <0>        -0.1641
     27 C23         3.2731  -14.4427   -3.7110 C.ar      1 <0>         0.0708
     28 C24         2.9915  -13.0939   -3.6141 C.ar      1 <0>        -0.1779
     29 Cl1         3.7053  -15.3438   -2.2915 Cl        1 <0>        -0.0357
     30 S1          3.5799  -16.7966   -5.0720 S.3       1 <0>         0.0957
     31 C25         5.3344  -16.8716   -4.9276 C.2       1 <0>         0.1753
     32 N5          6.1436  -15.8406   -4.8540 N.2       1 <0>        -0.4801
     33 C26         7.4100  -16.2765   -4.7518 C.2       1 <0>        -0.0226
     34 C27         7.3970  -17.6206   -4.7614 C.2       1 <0>        -0.0437
     35 N6          6.0807  -18.0085   -4.8675 N.pl3     1 <0>        -0.4458
     36 C28         5.5783  -19.3840   -4.9109 C.3       1 <0>         0.0676
     37 C29        -0.4505  -10.7097   -5.0301 C.1       1 <0>         0.2409
     38 N7         -1.1984  -11.1434   -4.2933 N.1       1 <0>        -0.3718
     39 H1         13.7310   -5.3193   -9.9730 H         1 <0>         0.0691
     40 H2         12.6941   -3.9013  -10.2595 H         1 <0>         0.0559
     41 H3         13.9627   -3.8388   -9.0125 H         1 <0>         0.0712
     42 H4         12.7620   -5.5695   -7.7043 H         1 <0>         0.0886
     43 H5         11.7251   -4.1514   -7.9908 H         1 <0>         0.0458
     44 H6          9.8411   -4.3254   -9.4851 H         1 <0>         0.0600
     45 H7         11.0306   -4.5849  -10.7841 H         1 <0>         0.1256
     46 H8          8.7871   -5.4392  -11.4281 H         1 <0>         0.1357
     47 H9          9.9775   -6.7584  -11.3237 H         1 <0>         0.1383
     48 H10         8.8069   -7.9971   -8.1238 H         1 <0>         0.1346
     49 H11         9.9888   -8.2198   -9.4359 H         1 <0>         0.1381
     50 H12        11.0505   -7.1465   -7.4749 H         1 <0>         0.1229
     51 H13         9.8527   -5.8309   -7.5402 H         1 <0>         0.0597
     52 H14         7.0591   -7.0089  -11.1681 H         1 <0>         0.1330
     53 H15         8.1754   -8.3771  -10.9440 H         1 <0>         0.1382
     54 H16         7.0838   -8.7183   -8.5732 H         1 <0>         0.1387
     55 H17         4.9852   -7.5168  -10.4285 H         1 <0>         0.1369
     56 H18         6.0452   -9.4296   -7.3597 H         1 <0>         0.1321
     57 H19         4.5545  -10.4120   -5.7048 H         1 <0>         0.1397
     58 H20         2.6962   -7.9676   -9.6024 H         1 <0>         0.1501
     59 H21        -1.0129   -9.3369   -7.2502 H         1 <0>         0.1809
     60 H22         2.4816  -10.5451   -3.8091 H         1 <0>         0.4231
     61 H23         2.3122  -12.4490   -6.8667 H         1 <0>         0.1300
     62 H24         2.8234  -14.8490   -7.0419 H         1 <0>         0.1448
     63 H25         3.0405  -12.5995   -2.6551 H         1 <0>         0.1420
     64 H26         8.2888  -15.6534   -4.6753 H         1 <0>         0.1702
     65 H27         8.2557  -18.2722   -4.6944 H         1 <0>         0.1784
     66 H28         5.5384  -19.7237   -5.9459 H         1 <0>         0.0823
     67 H29         6.2442  -20.0322   -4.3412 H         1 <0>         0.0924
     68 H30         4.5786  -19.4196   -4.4780 H         1 <0>         0.0903
     69 H31         8.0742   -6.0050   -9.2195 H         1 <0>         0.4209
@<TRIPOS>BOND
     1    1    2 1
     2    1   39 1
     3    1   40 1
     4    1   41 1
     5    2    3 1
     6    2   42 1
     7    2   43 1
     8    3    8 1
     9    3    4 1
    10    4    5 1
    11    4   44 1
    12    4   45 1
    13    5    6 1
    14    5   46 1
    15    5   47 1
    16    6    7 1
    17    6    9 1
    18    6   69 1
    19    7    8 1
    20    7   48 1
    21    7   49 1
    22    8   50 1
    23    8   51 1
    24    9   10 1
    25    9   52 1
    26    9   53 1
    27   10   11 2
    28   10   54 1
    29   11   12 1
    30   11   55 1
    31   12   17 ar
    32   12   13 ar
    33   13   14 ar
    34   13   56 1
    35   14   15 ar
    36   14   57 1
    37   15   21 ar
    38   15   16 ar
    39   16   17 ar
    40   16   18 ar
    41   17   58 1
    42   18   19 ar
    43   19   20 ar
    44   19   59 1
    45   20   21 ar
    46   20   37 1
    47   21   22 1
    48   22   23 1
    49   22   60 1
    50   23   28 ar
    51   23   24 ar
    52   24   25 ar
    53   24   61 1
    54   25   26 ar
    55   25   62 1
    56   26   27 ar
    57   26   30 1
    58   27   28 ar
    59   27   29 1
    60   28   63 1
    61   30   31 1
    62   31   35 1
    63   31   32 2
    64   32   33 1
    65   33   34 2
    66   33   64 1
    67   34   35 1
    68   34   65 1
    69   35   36 1
    70   36   66 1
    71   36   67 1
    72   36   68 1
    73   37   38 3
@<TRIPOS>MOLECULE
CHEMBL521013
   61    65     0     0     0
SMALL
USER_CHARGES

@<TRIPOS>ATOM
      1 C1          8.1856   -2.2805    3.1004 C.3       1 <0>         0.0689
      2 N1          6.9631   -1.7133    3.6748 N.pl3     1 <0>        -0.4470
      3 C2          6.7405   -0.3905    3.9829 C.2       1 <0>        -0.0425
      4 C3          5.4963   -0.3088    4.4849 C.2       1 <0>        -0.0193
      5 N2          4.9606   -1.5406    4.4896 N.2       1 <0>        -0.4774
      6 C4          5.8297   -2.3937    3.9997 C.2       1 <0>         0.1718
      7 S1          5.5744   -4.1257    3.8009 S.3       1 <0>         0.0928
      8 C5          3.9968   -4.4108    4.5321 C.ar      1 <0>        -0.1640
      9 C6          2.8865   -4.6281    3.7260 C.ar      1 <0>         0.0017
     10 C7          1.6506   -4.8514    4.2987 C.ar      1 <0>        -0.1798
     11 C8          1.5164   -4.8588    5.6815 C.ar      1 <0>         0.2419
     12 C9          2.6258   -4.6411    6.4884 C.ar      1 <0>        -0.1846
     13 C10         3.8640   -4.4238    5.9159 C.ar      1 <0>         0.0709
     14 Cl1         5.2525   -4.1598    6.9239 Cl        1 <0>        -0.0400
     15 N3          0.2631   -5.0852    6.2615 N.pl3     1 <0>        -0.7005
     16 C11         0.1005   -4.9548    7.6252 C.ar      1 <0>         0.2579
     17 C12         0.3624   -6.0362    8.4990 C.ar      1 <0>        -0.0983
     18 C13         0.7966   -7.2755    8.0040 C.ar      1 <0>        -0.0711
     19 C14         1.0429   -8.3015    8.8613 C.ar      1 <0>        -0.1067
     20 C15         0.8667   -8.1358   10.2450 C.ar      1 <0>        -0.0617
     21 C16         0.4385   -6.9227   10.7603 C.ar      1 <0>        -0.0566
     22 C17         0.1806   -5.8533    9.8913 C.ar      1 <0>         0.1470
     23 N4         -0.2338   -4.6705   10.3692 N.ar      1 <0>        -0.4586
     24 C18        -0.4832   -3.6539    9.5840 C.ar      1 <0>         0.1898
     25 C19        -0.3246   -3.7433    8.1917 C.ar      1 <0>        -0.0641
     26 C20        -0.5988   -2.6117    7.3582 C.1       1 <0>         0.2393
     27 N5         -0.8164   -1.7140    6.6969 N.1       1 <0>        -0.3691
     28 C21         1.1397   -9.2643   11.1585 C.2       1 <0>        -0.0236
     29 C22         1.5494  -10.4279   10.6712 C.2       1 <0>        -0.2378
     30 C23         1.8279  -11.5790   11.6031 C.3       1 <0>         0.0397
     31 N6          1.0386  -12.7466   11.1885 N.4       1 <0>        -0.3934
     32 C24         1.5408  -13.2703    9.8925 C.3       1 <0>        -0.0059
     33 C25         1.0379  -14.7358    9.8835 C.3       1 <0>        -0.1464
     34 C26         1.1929  -15.1635   11.3610 C.3       1 <0>        -0.1455
     35 C27         1.2077  -13.8478   12.1612 C.3       1 <0>        -0.0093
     36 H1          8.1201   -2.2584    2.0126 H         1 <0>         0.0819
     37 H2          9.0454   -1.6942    3.4246 H         1 <0>         0.0918
     38 H3          8.3009   -3.3110    3.4365 H         1 <0>         0.0886
     39 H4          7.4339    0.4264    3.8477 H         1 <0>         0.1796
     40 H5          5.0103    0.5933    4.8262 H         1 <0>         0.1718
     41 H6          2.9903   -4.6221    2.6510 H         1 <0>         0.1475
     42 H7          0.7876   -5.0200    3.6717 H         1 <0>         0.1399
     43 H8          2.5213   -4.6465    7.5633 H         1 <0>         0.1328
     44 H9         -0.4912   -5.3338    5.7047 H         1 <0>         0.4242
     45 H10         0.9347   -7.4143    6.9419 H         1 <0>         0.1392
     46 H11         1.3769   -9.2531    8.4748 H         1 <0>         0.1323
     47 H12         0.3043   -6.8019   11.8251 H         1 <0>         0.1501
     48 H13        -0.8147   -2.7221   10.0178 H         1 <0>         0.1810
     49 H14         1.0057   -9.1418   12.2231 H         1 <0>         0.1363
     50 H15         1.6834  -10.5504    9.6066 H         1 <0>         0.1380
     51 H16         2.8888  -11.8265   11.5678 H         1 <0>         0.1359
     52 H17         1.5540  -11.2978   12.6199 H         1 <0>         0.1309
     53 H18         1.1130  -12.7116    9.0601 H         1 <0>         0.1337
     54 H19         2.6298  -13.2371    9.8602 H         1 <0>         0.1338
     55 H20        -0.0067  -14.7832    9.5758 H         1 <0>         0.0975
     56 H21         1.6603  -15.3532    9.2359 H         1 <0>         0.1161
     57 H22         0.3491  -15.7824   11.6662 H         1 <0>         0.1047
     58 H23         2.1294  -15.7029   11.5025 H         1 <0>         0.1036
     59 H24         2.1592  -13.7406   12.6819 H         1 <0>         0.1308
     60 H25         0.3863  -13.8398   12.8777 H         1 <0>         0.1319
     61 H26         0.0638  -12.4981   11.1102 H         1 <0>         0.4274
@<TRIPOS>BOND
     1    1    2 1
     2    1   36 1
     3    1   37 1
     4    1   38 1
     5    2    6 1
     6    2    3 1
     7    3    4 2
     8    3   39 1
     9    4    5 1
    10    4   40 1
    11    5    6 2
    12    6    7 1
    13    7    8 1
    14    8   13 ar
    15    8    9 ar
    16    9   10 ar
    17    9   41 1
    18   10   11 ar
    19   10   42 1
    20   11   12 ar
    21   11   15 1
    22   12   13 ar
    23   12   43 1
    24   13   14 1
    25   15   16 1
    26   15   44 1
    27   16   25 ar
    28   16   17 ar
    29   17   22 ar
    30   17   18 ar
    31   18   19 ar
    32   18   45 1
    33   19   20 ar
    34   19   46 1
    35   20   21 ar
    36   20   28 1
    37   21   22 ar
    38   21   47 1
    39   22   23 ar
    40   23   24 ar
    41   24   25 ar
    42   24   48 1
    43   25   26 1
    44   26   27 3
    45   28   29 2
    46   28   49 1
    47   29   30 1
    48   29   50 1
    49   30   31 1
    50   30   51 1
    51   30   52 1
    52   31   35 1
    53   31   32 1
    54   31   61 1
    55   32   33 1
    56   32   53 1
    57   32   54 1
    58   33   34 1
    59   33   55 1
    60   33   56 1
    61   34   35 1
    62   34   57 1
    63   34   58 1
    64   35   59 1
    65   35   60 1
@<TRIPOS>MOLECULE
CHEMBL201716
   62    66     0     0     0
SMALL
USER_CHARGES

@<TRIPOS>ATOM
      1 C1         -0.5795    2.1581    0.0600 C.3       1 <0>        -0.0801
      2 C2         -0.7550    0.6672   -0.0719 C.2       1 <0>        -0.0962
      3 C3         -1.3313   -0.0100   -1.1498 C.2       1 <0>         0.0720
      4 C4         -1.2960   -1.3428   -0.8735 C.2       1 <0>        -0.0237
      5 N1         -0.7167   -1.5281    0.3425 N.pl3     1 <0>        -0.2421
      6 C5         -0.3702   -0.2935    0.8502 C.2       1 <0>        -0.0307
      7 C6          0.2587   -0.2108    2.1109 C.2       1 <0>         0.3466
      8 C7          0.5163   -1.3969    2.8104 C.2       1 <0>        -0.1577
      9 C8          0.1418   -2.6349    2.2383 C.2       1 <0>         0.1814
     10 N2         -0.4450   -2.6884    1.0780 N.2       1 <0>        -0.2700
     11 C9          1.1531   -1.3562    4.0924 C.1       1 <0>         0.2630
     12 N3          1.6583   -1.3240    5.1094 N.1       1 <0>        -0.4045
     13 N4          0.6132    1.0136    2.6435 N.pl3     1 <0>        -0.6857
     14 C10         1.5688    1.8067    1.9989 C.ar      1 <0>         0.1630
     15 C11         2.2755    1.3005    0.9155 C.ar      1 <0>        -0.1255
     16 C12         3.2180    2.0839    0.2797 C.ar      1 <0>        -0.1013
     17 C13         3.4597    3.3763    0.7230 C.ar      1 <0>         0.0916
     18 C14         2.7546    3.8825    1.8055 C.ar      1 <0>        -0.1525
     19 C15         1.8073    3.1025    2.4385 C.ar      1 <0>        -0.1286
     20 O1          4.3883    4.1469    0.0967 O.3       1 <0>        -0.2591
     21 C16         4.5372    5.4316    0.5134 C.ar      1 <0>         0.0845
     22 C17         5.2527    5.7087    1.6696 C.ar      1 <0>        -0.1341
     23 C18         5.4030    7.0157    2.0908 C.ar      1 <0>        -0.1061
     24 C19         4.8413    8.0474    1.3614 C.ar      1 <0>        -0.1184
     25 C20         4.1275    7.7740    0.2092 C.ar      1 <0>        -0.1050
     26 C21         3.9790    6.4693   -0.2195 C.ar      1 <0>        -0.1216
     27 O2         -1.8386    0.5616   -2.2766 O.3       1 <0>        -0.2728
     28 C22        -2.3845   -0.3185   -3.2612 C.3       1 <0>         0.0657
     29 C23        -2.9018    0.4998   -4.4460 C.3       1 <0>         0.0551
     30 N5         -1.7800    1.2028   -5.0826 N.3       1 <0>        -0.5286
     31 C24        -2.2580    2.3321   -5.8935 C.3       1 <0>         0.0189
     32 C25        -1.0562    3.0707   -6.4887 C.3       1 <0>         0.0630
     33 O3         -0.2682    2.1522   -7.2508 O.3       1 <0>        -0.3854
     34 C26         0.2143    1.0402   -6.4919 C.3       1 <0>         0.0636
     35 C27        -0.9745    0.2810   -5.8968 C.3       1 <0>         0.0148
     36 H1          0.3970    2.4449   -0.3304 H         1 <0>         0.0727
     37 H2         -1.3604    2.6673   -0.5047 H         1 <0>         0.0706
     38 H3         -0.6479    2.4405    1.1106 H         1 <0>         0.0645
     39 H4         -1.6681   -2.1266   -1.5166 H         1 <0>         0.1784
     40 H5          0.3400   -3.5503    2.7761 H         1 <0>         0.2030
     41 H6          0.1996    1.3235    3.4644 H         1 <0>         0.4213
     42 H7          2.0880    0.2944    0.5708 H         1 <0>         0.1276
     43 H8          3.7675    1.6906   -0.5627 H         1 <0>         0.1362
     44 H9          2.9438    4.8883    2.1504 H         1 <0>         0.1333
     45 H10         1.2551    3.4983    3.2781 H         1 <0>         0.1301
     46 H11         5.6913    4.9033    2.2399 H         1 <0>         0.1301
     47 H12         5.9594    7.2319    2.9909 H         1 <0>         0.1301
     48 H13         4.9600    9.0685    1.6925 H         1 <0>         0.1285
     49 H14         3.6892    8.5816   -0.3583 H         1 <0>         0.1315
     50 H15         3.4255    6.2566   -1.1222 H         1 <0>         0.1325
     51 H16        -1.6103   -1.0049   -3.6041 H         1 <0>         0.0609
     52 H17        -3.2064   -0.8864   -2.8253 H         1 <0>         0.0659
     53 H18        -3.3713   -0.1661   -5.1701 H         1 <0>         0.0614
     54 H19        -3.6333    1.2270   -4.0935 H         1 <0>         0.0882
     55 H20        -2.8915    1.9597   -6.6985 H         1 <0>         0.0429
     56 H21        -2.8301    3.0148   -5.2653 H         1 <0>         0.0884
     57 H22        -1.4071    3.8739   -7.1366 H         1 <0>         0.0984
     58 H23        -0.4513    3.4890   -5.6843 H         1 <0>         0.0617
     59 H24         0.7824    0.3749   -7.1422 H         1 <0>         0.0980
     60 H25         0.8563    1.3995   -5.6876 H         1 <0>         0.0615
     61 H26        -0.6098   -0.5335   -5.2710 H         1 <0>         0.0854
     62 H27        -1.5875   -0.1242   -6.7019 H         1 <0>         0.0437
@<TRIPOS>BOND
     1    1    2 1
     2    1   36 1
     3    1   37 1
     4    1   38 1
     5    2    6 2
     6    2    3 1
     7    3    4 2
     8    3   27 1
     9    4    5 1
    10    4   39 1
    11    5   10 1
    12    5    6 1
    13    6    7 1
    14    7    8 2
    15    7   13 1
    16    8    9 1
    17    8   11 1
    18    9   10 2
    19    9   40 1
    20   11   12 3
    21   13   14 1
    22   13   41 1
    23   14   19 ar
    24   14   15 ar
    25   15   16 ar
    26   15   42 1
    27   16   17 ar
    28   16   43 1
    29   17   18 ar
    30   17   20 1
    31   18   19 ar
    32   18   44 1
    33   19   45 1
    34   20   21 1
    35   21   26 ar
    36   21   22 ar
    37   22   23 ar
    38   22   46 1
    39   23   24 ar
    40   23   47 1
    41   24   25 ar
    42   24   48 1
    43   25   26 ar
    44   25   49 1
    45   26   50 1
    46   27   28 1
    47   28   29 1
    48   28   51 1
    49   28   52 1
    50   29   30 1
    51   29   53 1
    52   29   54 1
    53   30   35 1
    54   30   31 1
    55   31   32 1
    56   31   55 1
    57   31   56 1
    58   32   33 1
    59   32   57 1
    60   32   58 1
    61   33   34 1
    62   34   35 1
    63   34   59 1
    64   34   60 1
    65   35   61 1
    66   35   62 1
@<TRIPOS>MOLECULE
CHEMBL201716__1
   63    67     0     0     0
SMALL
USER_CHARGES

@<TRIPOS>ATOM
      1 C1         -0.1570    1.7226    0.7143 C.3       1 <0>        -0.0852
      2 C2         -0.4371    0.2695    0.4297 C.2       1 <0>        -0.0916
      3 C3         -1.2148   -0.2385   -0.6141 C.2       1 <0>         0.0486
      4 C4         -1.2133   -1.5965   -0.5144 C.2       1 <0>        -0.0167
      5 N1         -0.4605   -1.9611    0.5574 N.pl3     1 <0>        -0.2374
      6 C5          0.0327   -0.8176    1.1500 C.2       1 <0>        -0.0190
      7 C6          0.8570   -0.9247    2.2905 C.2       1 <0>         0.3402
      8 C7          1.1531   -2.2011    2.7860 C.2       1 <0>        -0.1370
      9 C8          0.6219   -3.3385    2.1346 C.2       1 <0>         0.1922
     10 N2         -0.1433   -3.2173    1.0890 N.2       1 <0>        -0.2687
     11 C9          1.9861   -2.3528    3.9409 C.1       1 <0>         0.2511
     12 N3          2.6470   -2.4731    4.8570 N.1       1 <0>        -0.3838
     13 N4          1.3614    0.2052    2.9049 N.pl3     1 <0>        -0.6858
     14 C10         2.2595    1.0316    2.2208 C.ar      1 <0>         0.1588
     15 C11         2.7469    0.6493    0.9775 C.ar      1 <0>        -0.1299
     16 C12         3.6327    1.4656    0.3028 C.ar      1 <0>        -0.1056
     17 C13         4.0365    2.6674    0.8666 C.ar      1 <0>         0.0945
     18 C14         3.5505    3.0499    2.1087 C.ar      1 <0>        -0.1508
     19 C15         2.6598    2.2376    2.7819 C.ar      1 <0>        -0.1250
     20 O1          4.9092    3.4705    0.2018 O.3       1 <0>        -0.2583
     21 C16         5.2116    4.6762    0.7506 C.ar      1 <0>         0.0795
     22 C17         6.1036    4.7532    1.8108 C.ar      1 <0>        -0.1334
     23 C18         6.4096    5.9802    2.3666 C.ar      1 <0>        -0.1032
     24 C19         5.8280    7.1311    1.8674 C.ar      1 <0>        -0.1147
     25 C20         4.9385    7.0571    0.8114 C.ar      1 <0>        -0.1050
     26 C21         4.6334    5.8332    0.2482 C.ar      1 <0>        -0.1226
     27 O2         -1.8603    0.4946   -1.5627 O.3       1 <0>        -0.3041
     28 C22        -2.6050   -0.2277   -2.5454 C.3       1 <0>         0.0246
     29 C23        -3.2553    0.7577   -3.5185 C.3       1 <0>         0.0007
     30 N5         -2.2097    1.4955   -4.2399 N.4       1 <0>        -0.3870
     31 C24        -2.8279    2.5506   -5.0546 C.3       1 <0>        -0.0436
     32 C25        -1.7365    3.3179   -5.8050 C.3       1 <0>         0.0353
     33 O3         -0.9863    2.4042   -6.6101 O.3       1 <0>        -0.3560
     34 C26        -0.3836    1.3432   -5.8638 C.3       1 <0>         0.0368
     35 C27        -1.4725    0.5722   -5.1136 C.3       1 <0>        -0.0494
     36 H1          0.7571    2.0235    0.2025 H         1 <0>         0.0753
     37 H2         -0.9894    2.3296    0.3582 H         1 <0>         0.0677
     38 H3         -0.0362    1.8658    1.7881 H         1 <0>         0.0721
     39 H4         -1.7272   -2.2746   -1.1795 H         1 <0>         0.1799
     40 H5          0.8495   -4.3233    2.5151 H         1 <0>         0.2101
     41 H6          1.0930    0.4255    3.8106 H         1 <0>         0.4240
     42 H7          2.4332   -0.2864    0.5389 H         1 <0>         0.1256
     43 H8          4.0117    1.1685   -0.6638 H         1 <0>         0.1353
     44 H9          3.8658    3.9852    2.5471 H         1 <0>         0.1360
     45 H10         2.2779    2.5376    3.7465 H         1 <0>         0.1323
     46 H11         6.5578    3.8545    2.2012 H         1 <0>         0.1310
     47 H12         7.1035    6.0406    3.1919 H         1 <0>         0.1326
     48 H13         6.0687    8.0894    2.3034 H         1 <0>         0.1310
     49 H14         4.4851    7.9575    0.4238 H         1 <0>         0.1323
     50 H15         3.9422    5.7765   -0.5798 H         1 <0>         0.1297
     51 H16        -1.9359   -0.8912   -3.0932 H         1 <0>         0.0855
     52 H17        -3.3790   -0.8172   -2.0539 H         1 <0>         0.1104
     53 H18        -3.8718    0.2107   -4.2318 H         1 <0>         0.1506
     54 H19        -3.8778    1.4594   -2.9633 H         1 <0>         0.1447
     55 H20        -3.5147    2.1009   -5.7717 H         1 <0>         0.1400
     56 H21        -3.3749    3.2362   -4.4075 H         1 <0>         0.1439
     57 H22        -2.1956    4.0730   -6.4431 H         1 <0>         0.1427
     58 H23        -1.0727    3.8011   -5.0881 H         1 <0>         0.0820
     59 H24         0.1364    0.6691   -6.5445 H         1 <0>         0.1422
     60 H25         0.3265    1.7587   -5.1489 H         1 <0>         0.0823
     61 H26        -1.0134   -0.2109   -4.5101 H         1 <0>         0.1408
     62 H27        -2.1598    0.1232   -5.8306 H         1 <0>         0.1409
     63 H28        -1.5732    1.9117   -3.5768 H         1 <0>         0.4309
@<TRIPOS>BOND
     1    1    2 1
     2    1   36 1
     3    1   37 1
     4    1   38 1
     5    2    6 2
     6    2    3 1
     7    3    4 2
     8    3   27 1
     9    4    5 1
    10    4   39 1
    11    5   10 1
    12    5    6 1
    13    6    7 1
    14    7    8 2
    15    7   13 1
    16    8    9 1
    17    8   11 1
    18    9   10 2
    19    9   40 1
    20   11   12 3
    21   13   14 1
    22   13   41 1
    23   14   19 ar
    24   14   15 ar
    25   15   16 ar
    26   15   42 1
    27   16   17 ar
    28   16   43 1
    29   17   18 ar
    30   17   20 1
    31   18   19 ar
    32   18   44 1
    33   19   45 1
    34   20   21 1
    35   21   26 ar
    36   21   22 ar
    37   22   23 ar
    38   22   46 1
    39   23   24 ar
    40   23   47 1
    41   24   25 ar
    42   24   48 1
    43   25   26 ar
    44   25   49 1
    45   26   50 1
    46   27   28 1
    47   28   29 1
    48   28   51 1
    49   28   52 1
    50   29   30 1
    51   29   53 1
    52   29   54 1
    53   30   35 1
    54   30   31 1
    55   30   63 1
    56   31   32 1
    57   31   55 1
    58   31   56 1
    59   32   33 1
    60   32   57 1
    61   32   58 1
    62   33   34 1
    63   34   35 1
    64   34   59 1
    65   34   60 1
    66   35   61 1
    67   35   62 1
@<TRIPOS>MOLECULE
CHEMBL382616
   55    60     0     0     0
SMALL
USER_CHARGES

@<TRIPOS>ATOM
      1 C1         -0.9472    1.7860   -0.0800 C.3       1 <0>        -0.0974
      2 C2         -0.8960    0.2845   -0.1973 C.2       1 <0>        -0.0146
      3 C3         -1.2110   -0.4792   -1.3366 C.2       1 <0>        -0.1023
      4 C4         -1.0271   -1.8085   -1.0045 C.2       1 <0>         0.0862
      5 N1         -0.6169   -1.8846    0.2779 N.pl3     1 <0>        -0.2439
      6 C5         -0.5248   -0.6069    0.7915 C.2       1 <0>        -0.0641
      7 C6         -0.1060   -0.4229    2.1296 C.2       1 <0>         0.3600
      8 C7          0.2072   -1.5526    2.8952 C.2       1 <0>        -0.1662
      9 C8          0.0970   -2.8374    2.3135 C.2       1 <0>         0.1978
     10 N2         -0.2970   -2.9861    1.0828 N.2       1 <0>        -0.2786
     11 C9          0.6355   -1.4088    4.2540 C.1       1 <0>         0.2623
     12 N3          0.9753   -1.2947    5.3320 N.1       1 <0>        -0.4028
     13 N4         -0.0077    0.8436    2.6694 N.pl3     1 <0>        -0.6864
     14 C10         0.9274    1.7509    2.1593 C.ar      1 <0>         0.1610
     15 C11         1.8546    1.3345    1.2126 C.ar      1 <0>        -0.1274
     16 C12         2.7771    2.2304    0.7097 C.ar      1 <0>        -0.1017
     17 C13         2.7782    3.5462    1.1500 C.ar      1 <0>         0.0937
     18 C14         1.8526    3.9628    2.0960 C.ar      1 <0>        -0.1508
     19 C15         0.9252    3.0698    2.5950 C.ar      1 <0>        -0.1264
     20 O1          3.6871    4.4276    0.6547 O.3       1 <0>        -0.2590
     21 C16         3.6845    5.6928    1.1503 C.ar      1 <0>         0.0834
     22 C17         4.2990    5.9649    2.3643 C.ar      1 <0>        -0.1319
     23 C18         4.2949    7.2519    2.8660 C.ar      1 <0>        -0.1062
     24 C19         3.6792    8.2687    2.1595 C.ar      1 <0>        -0.1179
     25 C20         3.0661    8.0002    0.9496 C.ar      1 <0>        -0.1053
     26 C21         3.0723    6.7160    0.4406 C.ar      1 <0>        -0.1223
     27 C22        -1.6565    0.0431   -2.6455 C.2       1 <0>         0.3664
     28 N5         -1.9620   -0.7246   -3.7370 N.pl3     1 <0>        -0.5989
     29 H1         -1.9251   -1.6925   -3.7885 H         1 <0>         0.4225
     30 C23        -2.3334    0.1372   -4.7518 C.ar      1 <0>         0.0512
     31 C24        -2.7424   -0.0416   -6.0657 C.ar      1 <0>        -0.1122
     32 C25        -3.0506    1.0565   -6.8413 C.ar      1 <0>        -0.1004
     33 C26        -2.9539    2.3374   -6.3168 C.ar      1 <0>        -0.1262
     34 C27        -2.5530    2.5332   -5.0256 C.ar      1 <0>        -0.0643
     35 C28        -2.2358    1.4350   -4.2202 C.ar      1 <0>         0.0520
     36 N6         -1.8240    1.3110   -2.9341 N.2       1 <0>        -0.4757
     37 H2          0.0416    2.1999   -0.2780 H         1 <0>         0.0793
     38 H3         -1.6587    2.1830   -0.8041 H         1 <0>         0.0946
     39 H4         -1.2614    2.0614    0.9267 H         1 <0>         0.0651
     40 H5         -1.1863   -2.6487   -1.6642 H         1 <0>         0.1844
     41 H6          0.3386   -3.7096    2.9028 H         1 <0>         0.2054
     42 H7         -0.5868    1.1047    3.4024 H         1 <0>         0.4225
     43 H8          1.8543    0.3102    0.8703 H         1 <0>         0.1271
     44 H9          3.4981    1.9068   -0.0264 H         1 <0>         0.1364
     45 H10         1.8546    4.9869    2.4388 H         1 <0>         0.1332
     46 H11         0.2015    3.3954    3.3275 H         1 <0>         0.1309
     47 H12         4.7798    5.1711    2.9167 H         1 <0>         0.1299
     48 H13         4.7727    7.4642    3.8110 H         1 <0>         0.1301
     49 H14         3.6768    9.2742    2.5537 H         1 <0>         0.1286
     50 H15         2.5859    8.7961    0.3997 H         1 <0>         0.1317
     51 H16         2.5972    6.5077   -0.5066 H         1 <0>         0.1328
     52 H17        -2.8188   -1.0364   -6.4794 H         1 <0>         0.1234
     53 H18        -3.3690    0.9184   -7.8640 H         1 <0>         0.1308
     54 H19        -3.1976    3.1882   -6.9357 H         1 <0>         0.1301
     55 H20        -2.4809    3.5346   -4.6276 H         1 <0>         0.1300
@<TRIPOS>BOND
     1    1    2 1
     2    1   37 1
     3    1   38 1
     4    1   39 1
     5    2    6 2
     6    2    3 1
     7    3    4 2
     8    3   27 1
     9    4    5 1
    10    4   40 1
    11    5   10 1
    12    5    6 1
    13    6    7 1
    14    7    8 2
    15    7   13 1
    16    8    9 1
    17    8   11 1
    18    9   10 2
    19    9   41 1
    20   11   12 3
    21   13   14 1
    22   13   42 1
    23   14   19 ar
    24   14   15 ar
    25   15   16 ar
    26   15   43 1
    27   16   17 ar
    28   16   44 1
    29   17   18 ar
    30   17   20 1
    31   18   19 ar
    32   18   45 1
    33   19   46 1
    34   20   21 1
    35   21   26 ar
    36   21   22 ar
    37   22   23 ar
    38   22   47 1
    39   23   24 ar
    40   23   48 1
    41   24   25 ar
    42   24   49 1
    43   25   26 ar
    44   25   50 1
    45   26   51 1
    46   27   36 2
    47   27   28 1
    48   28   29 1
    49   28   30 1
    50   30   35 ar
    51   30   31 ar
    52   31   32 ar
    53   31   52 1
    54   32   33 ar
    55   32   53 1
    56   33   34 ar
    57   33   54 1
    58   34   35 ar
    59   34   55 1
    60   35   36 1
@<TRIPOS>MOLECULE
CHEMBL371658
   63    67     0     0     0
SMALL
USER_CHARGES

@<TRIPOS>ATOM
      1 C1          2.2324    5.6347    7.0962 C.ar      1 <0>        -0.1241
      2 C2          3.0267    5.6771    5.9657 C.ar      1 <0>        -0.1170
      3 C3          2.9071    4.6955    4.9998 C.ar      1 <0>        -0.1149
      4 C4          1.9935    3.6713    5.1646 C.ar      1 <0>        -0.0738
      5 C5          1.1998    3.6284    6.2956 C.ar      1 <0>        -0.1152
      6 C6          1.3184    4.6107    7.2608 C.ar      1 <0>        -0.1174
      7 C7          1.8624    2.6017    4.1111 C.3       1 <0>        -0.0385
      8 C8          2.8074    1.4701    4.4237 C.ar      1 <0>        -0.1167
      9 C9          4.0962    1.4893    3.9227 C.ar      1 <0>        -0.0680
     10 C10         4.9646    0.4538    4.2069 C.ar      1 <0>        -0.1735
     11 C11         4.5423   -0.6077    4.9975 C.ar      1 <0>         0.2010
     12 C12         3.2470   -0.6235    5.4995 C.ar      1 <0>        -0.1749
     13 C13         2.3855    0.4178    5.2156 C.ar      1 <0>        -0.0675
     14 N1          5.4181   -1.6572    5.2866 N.pl3     1 <0>        -0.7042
     15 C14         4.9635   -2.7672    5.9694 C.ar      1 <0>         0.2463
     16 C15         5.0074   -2.8275    7.3822 C.ar      1 <0>        -0.0326
     17 C16         5.5099   -1.7735    8.1558 C.ar      1 <0>        -0.2179
     18 C17         5.5182   -1.9096    9.5319 C.ar      1 <0>         0.3967
     19 N2          5.0625   -3.0114   10.1191 N.ar      1 <0>        -0.5086
     20 C18         4.5811   -4.0284    9.4435 C.ar      1 <0>         0.2187
     21 C19         4.5292   -3.9872    8.0412 C.ar      1 <0>         0.0388
     22 N3          4.0418   -5.0126    7.3305 N.ar      1 <0>        -0.4296
     23 C20         3.9889   -4.9845    6.0235 C.ar      1 <0>         0.1529
     24 C21         4.4361   -3.8733    5.2883 C.ar      1 <0>        -0.0530
     25 C22         4.3582   -3.8727    3.8585 C.1       1 <0>         0.2521
     26 N4          4.2963   -3.8723    2.7241 N.1       1 <0>        -0.3877
     27 N5          6.0140   -0.8722   10.3178 N.pl3     1 <0>        -0.7197
     28 C23         6.5202    0.3484    9.6852 C.3       1 <0>         0.1305
     29 C24         7.0016    1.3202   10.7644 C.3       1 <0>         0.0452
     30 N6          7.5092    2.5441   10.1301 N.3       1 <0>        -0.5315
     31 C25         8.7244    2.2682    9.3500 C.3       1 <0>         0.0123
     32 C26         9.1842    3.5550    8.6596 C.3       1 <0>         0.0633
     33 O1          9.3923    4.5705    9.6449 O.3       1 <0>        -0.3839
     34 C27         8.2289    4.8650   10.4228 C.3       1 <0>         0.0631
     35 C28         7.7594    3.5915   11.1310 C.3       1 <0>         0.0187
     36 H1          2.3289    6.3991    7.8530 H         1 <0>         0.1196
     37 H2          3.7405    6.4773    5.8369 H         1 <0>         0.1204
     38 H3          3.5272    4.7290    4.1161 H         1 <0>         0.1193
     39 H4          0.4858    2.8284    6.4242 H         1 <0>         0.1189
     40 H5          0.6980    4.5775    8.1442 H         1 <0>         0.1201
     41 H6          0.8388    2.2273    4.0987 H         1 <0>         0.0802
     42 H7          2.1078    3.0208    3.1353 H         1 <0>         0.0807
     43 H8          4.4239    2.3148    3.3083 H         1 <0>         0.1234
     44 H9          5.9708    0.4690    3.8148 H         1 <0>         0.1231
     45 H10         2.9154   -1.4472    6.1143 H         1 <0>         0.1165
     46 H11         1.3797    0.4082    5.6089 H         1 <0>         0.1216
     47 H12         6.3456   -1.6058    5.0074 H         1 <0>         0.4161
     48 H13         5.8830   -0.8745    7.6878 H         1 <0>         0.1408
     49 H14         4.2231   -4.9013    9.9690 H         1 <0>         0.1821
     50 H15         3.5870   -5.8366    5.4955 H         1 <0>         0.1748
     51 H16         6.0242   -0.9578   11.2839 H         1 <0>         0.4074
     52 H17         7.3507    0.0980    9.0251 H         1 <0>         0.0648
     53 H18         5.7233    0.8147    9.1057 H         1 <0>         0.0768
     54 H19         6.1712    1.5706   11.4245 H         1 <0>         0.0861
     55 H20         7.7985    0.8540   11.3438 H         1 <0>         0.0452
     56 H21         9.5106    1.9110   10.0151 H         1 <0>         0.0461
     57 H22         8.5097    1.5086    8.5983 H         1 <0>         0.0878
     58 H23        10.1164    3.3688    8.1263 H         1 <0>         0.0995
     59 H24         8.4202    3.8829    7.9547 H         1 <0>         0.0617
     60 H25         8.4702    5.6262   11.1647 H         1 <0>         0.1007
     61 H26         7.4371    5.2309    9.7691 H         1 <0>         0.0620
     62 H27         6.8403    3.7978   11.6794 H         1 <0>         0.0891
     63 H28         8.5302    3.2554   11.8246 H         1 <0>         0.0460
@<TRIPOS>BOND
     1    1    6 ar
     2    1    2 ar
     3    1   36 1
     4    2    3 ar
     5    2   37 1
     6    3    4 ar
     7    3   38 1
     8    4    5 ar
     9    4    7 1
    10    5    6 ar
    11    5   39 1
    12    6   40 1
    13    7    8 1
    14    7   41 1
    15    7   42 1
    16    8   13 ar
    17    8    9 ar
    18    9   10 ar
    19    9   43 1
    20   10   11 ar
    21   10   44 1
    22   11   12 ar
    23   11   14 1
    24   12   13 ar
    25   12   45 1
    26   13   46 1
    27   14   15 1
    28   14   47 1
    29   15   24 ar
    30   15   16 ar
    31   16   21 ar
    32   16   17 ar
    33   17   18 ar
    34   17   48 1
    35   18   19 ar
    36   18   27 1
    37   19   20 ar
    38   20   21 ar
    39   20   49 1
    40   21   22 ar
    41   22   23 ar
    42   23   24 ar
    43   23   50 1
    44   24   25 1
    45   25   26 3
    46   27   28 1
    47   27   51 1
    48   28   29 1
    49   28   52 1
    50   28   53 1
    51   29   30 1
    52   29   54 1
    53   29   55 1
    54   30   35 1
    55   30   31 1
    56   31   32 1
    57   31   56 1
    58   31   57 1
    59   32   33 1
    60   32   58 1
    61   32   59 1
    62   33   34 1
    63   34   35 1
    64   34   60 1
    65   34   61 1
    66   35   62 1
    67   35   63 1
@<TRIPOS>MOLECULE
CHEMBL371658__1
   64    68     0     0     0
SMALL
USER_CHARGES

@<TRIPOS>ATOM
      1 C1          2.2324    5.6347    7.0962 C.ar      1 <0>        -0.1278
      2 C2          3.0267    5.6771    5.9657 C.ar      1 <0>        -0.1201
      3 C3          2.9071    4.6955    4.9998 C.ar      1 <0>        -0.1158
      4 C4          1.9935    3.6713    5.1646 C.ar      1 <0>        -0.0709
      5 C5          1.1998    3.6284    6.2956 C.ar      1 <0>        -0.1146
      6 C6          1.3184    4.6107    7.2608 C.ar      1 <0>        -0.1182
      7 C7          1.8624    2.6017    4.1111 C.3       1 <0>        -0.0437
      8 C8          2.8074    1.4701    4.4237 C.ar      1 <0>        -0.1126
      9 C9          4.0962    1.4893    3.9227 C.ar      1 <0>        -0.0689
     10 C10         4.9646    0.4538    4.2069 C.ar      1 <0>        -0.1756
     11 C11         4.5423   -0.6077    4.9975 C.ar      1 <0>         0.1964
     12 C12         3.2470   -0.6235    5.4995 C.ar      1 <0>        -0.1756
     13 C13         2.3855    0.4178    5.2156 C.ar      1 <0>        -0.0672
     14 N1          5.4181   -1.6572    5.2866 N.pl3     1 <0>        -0.7045
     15 C14         4.9635   -2.7672    5.9694 C.ar      1 <0>         0.2424
     16 C15         5.0074   -2.8275    7.3822 C.ar      1 <0>        -0.0362
     17 C16         5.5099   -1.7735    8.1558 C.ar      1 <0>        -0.2123
     18 C17         5.5182   -1.9096    9.5319 C.ar      1 <0>         0.3860
     19 N2          5.0625   -3.0114   10.1191 N.ar      1 <0>        -0.5053
     20 C18         4.5811   -4.0284    9.4435 C.ar      1 <0>         0.2264
     21 C19         4.5292   -3.9872    8.0412 C.ar      1 <0>         0.0506
     22 N3          4.0418   -5.0126    7.3305 N.ar      1 <0>        -0.4290
     23 C20         3.9889   -4.9845    6.0235 C.ar      1 <0>         0.1656
     24 C21         4.4361   -3.8733    5.2883 C.ar      1 <0>        -0.0421
     25 C22         4.3582   -3.8727    3.8585 C.1       1 <0>         0.2425
     26 N4          4.2963   -3.8723    2.7241 N.1       1 <0>        -0.3724
     27 N5          6.0140   -0.8722   10.3178 N.pl3     1 <0>        -0.7253
     28 C23         6.5202    0.3484    9.6852 C.3       1 <0>         0.1079
     29 C24         7.0016    1.3202   10.7644 C.3       1 <0>        -0.0207
     30 N6          7.5092    2.5441   10.1301 N.4       1 <0>        -0.3816
     31 C25         8.7031    2.2251    9.3351 C.3       1 <0>        -0.0512
     32 C26         9.2299    3.5018    8.6751 C.3       1 <0>         0.0368
     33 O1          9.5160    4.4719    9.6865 O.3       1 <0>        -0.3547
     34 C27         8.3885    4.7984   10.5038 C.3       1 <0>         0.0357
     35 C28         7.8602    3.5241   11.1672 C.3       1 <0>        -0.0427
     36 H1          2.3289    6.3991    7.8530 H         1 <0>         0.1196
     37 H2          3.7405    6.4773    5.8369 H         1 <0>         0.1206
     38 H3          3.5272    4.7290    4.1161 H         1 <0>         0.1207
     39 H4          0.4858    2.8284    6.4242 H         1 <0>         0.1208
     40 H5          0.6980    4.5775    8.1442 H         1 <0>         0.1213
     41 H6          0.8388    2.2273    4.0987 H         1 <0>         0.0834
     42 H7          2.1078    3.0208    3.1353 H         1 <0>         0.0838
     43 H8          4.4239    2.3148    3.3083 H         1 <0>         0.1250
     44 H9          5.9708    0.4690    3.8148 H         1 <0>         0.1234
     45 H10         2.9154   -1.4472    6.1143 H         1 <0>         0.1170
     46 H11         1.3797    0.4082    5.6089 H         1 <0>         0.1236
     47 H12         6.3456   -1.6058    5.0074 H         1 <0>         0.4162
     48 H13         5.8830   -0.8745    7.6878 H         1 <0>         0.1364
     49 H14         4.2231   -4.9013    9.9690 H         1 <0>         0.1879
     50 H15         3.5870   -5.8366    5.4955 H         1 <0>         0.1806
     51 H16         6.0242   -0.9578   11.2839 H         1 <0>         0.4141
     52 H17         7.3507    0.0980    9.0251 H         1 <0>         0.0834
     53 H18         5.7233    0.8147    9.1057 H         1 <0>         0.0856
     54 H19         6.1712    1.5706   11.4245 H         1 <0>         0.1428
     55 H20         7.7985    0.8540   11.3438 H         1 <0>         0.1410
     56 H21         9.4721    1.8080    9.9853 H         1 <0>         0.1426
     57 H22         8.4438    1.4982    8.5654 H         1 <0>         0.1427
     58 H23        10.1401    3.2756    8.1198 H         1 <0>         0.1434
     59 H24         8.4761    3.8972    7.9943 H         1 <0>         0.0829
     60 H25         8.6898    5.5107   11.2719 H         1 <0>         0.1444
     61 H26         7.6060    5.2383    9.8855 H         1 <0>         0.0829
     62 H27         6.9751    3.7616   11.7574 H         1 <0>         0.1452
     63 H28         8.6295    3.1065   11.8167 H         1 <0>         0.1416
     64 H29         6.7977    2.9312    9.5284 H         1 <0>         0.4259
@<TRIPOS>BOND
     1    1    6 ar
     2    1    2 ar
     3    1   36 1
     4    2    3 ar
     5    2   37 1
     6    3    4 ar
     7    3   38 1
     8    4    5 ar
     9    4    7 1
    10    5    6 ar
    11    5   39 1
    12    6   40 1
    13    7    8 1
    14    7   41 1
    15    7   42 1
    16    8   13 ar
    17    8    9 ar
    18    9   10 ar
    19    9   43 1
    20   10   11 ar
    21   10   44 1
    22   11   12 ar
    23   11   14 1
    24   12   13 ar
    25   12   45 1
    26   13   46 1
    27   14   15 1
    28   14   47 1
    29   15   24 ar
    30   15   16 ar
    31   16   21 ar
    32   16   17 ar
    33   17   18 ar
    34   17   48 1
    35   18   19 ar
    36   18   27 1
    37   19   20 ar
    38   20   21 ar
    39   20   49 1
    40   21   22 ar
    41   22   23 ar
    42   23   24 ar
    43   23   50 1
    44   24   25 1
    45   25   26 3
    46   27   28 1
    47   27   51 1
    48   28   29 1
    49   28   52 1
    50   28   53 1
    51   29   30 1
    52   29   54 1
    53   29   55 1
    54   30   35 1
    55   30   31 1
    56   30   64 1
    57   31   32 1
    58   31   56 1
    59   31   57 1
    60   32   33 1
    61   32   58 1
    62   32   59 1
    63   33   34 1
    64   34   35 1
    65   34   60 1
    66   34   61 1
    67   35   62 1
    68   35   63 1
@<TRIPOS>MOLECULE
CHEMBL37548
   44    46     0     0     0
SMALL
USER_CHARGES

@<TRIPOS>ATOM
      1 C1          0.5252    1.3008    1.9961 C.ar      1 <0>        -0.0882
      2 C2          1.3015    1.9468    1.0500 C.ar      1 <0>        -0.1301
      3 C3          2.3821    1.3032    0.4839 C.ar      1 <0>        -0.0625
      4 C4          2.6920   -0.0033    0.8675 C.ar      1 <0>        -0.1626
      5 C5          1.9044   -0.6493    1.8229 C.ar      1 <0>        -0.0809
      6 C6          0.8266    0.0062    2.3809 C.ar      1 <0>        -0.1309
      7 C7          3.8481   -0.6995    0.2649 C.2       1 <0>         0.4382
      8 O1          4.7362   -0.0581   -0.2640 O.2       1 <0>        -0.4455
      9 C8          3.9249   -2.1690    0.3047 C.ar      1 <0>        -0.1572
     10 C9          2.7531   -2.9293    0.4108 C.ar      1 <0>        -0.0744
     11 C10         2.8248   -4.2907    0.4471 C.ar      1 <0>        -0.1107
     12 C11         4.0691   -4.9284    0.3789 C.ar      1 <0>         0.0106
     13 C12         5.2403   -4.1692    0.2728 C.ar      1 <0>        -0.1223
     14 C13         5.1694   -2.8079    0.2306 C.ar      1 <0>        -0.0566
     15 C14         4.1460   -6.4007    0.4192 C.2       1 <0>        -0.1299
     16 C15         4.6126   -7.1036   -0.6875 C.2       1 <0>         0.2205
     17 N1          5.0006   -6.4279   -1.8147 N.pl3     1 <0>        -0.8233
     18 S1          4.7046   -8.8626   -0.6393 S.3       1 <0>         0.0196
     19 C16         6.4328   -9.2009   -0.6994 C.ar      1 <0>        -0.1925
     20 C17         7.3467   -8.1572   -0.6934 C.ar      1 <0>        -0.0731
     21 C18         8.7018   -8.4250   -0.7401 C.ar      1 <0>        -0.1607
     22 C19         9.1513   -9.7318   -0.7934 C.ar      1 <0>        -0.0629
     23 C20         8.2480  -10.7782   -0.7997 C.ar      1 <0>        -0.1833
     24 C21         6.8864  -10.5193   -0.7473 C.ar      1 <0>         0.2487
     25 N2          5.9705  -11.5767   -0.7483 N.pl3     1 <0>        -0.8698
     26 C22         3.7406   -7.1068    1.5971 C.1       1 <0>         0.2704
     27 N3          3.4190   -7.6670    2.5316 N.1       1 <0>        -0.4213
     28 H1         -0.3171    1.8110    2.4395 H         1 <0>         0.1286
     29 H2          1.0604    2.9571    0.7540 H         1 <0>         0.1307
     30 H3          2.9869    1.8084   -0.2547 H         1 <0>         0.1331
     31 H4          2.1383   -1.6598    2.1238 H         1 <0>         0.1364
     32 H5          0.2166   -0.4922    3.1198 H         1 <0>         0.1308
     33 H6          1.7931   -2.4374    0.4641 H         1 <0>         0.1391
     34 H7          1.9215   -4.8770    0.5289 H         1 <0>         0.1336
     35 H8          6.2000   -4.6617    0.2202 H         1 <0>         0.1325
     36 H9          6.0729   -2.2224    0.1446 H         1 <0>         0.1368
     37 H10         5.0158   -5.4580   -1.8176 H         1 <0>         0.4073
     38 H11         5.2599   -6.9194   -2.6097 H         1 <0>         0.4121
     39 H12         6.9992   -7.1354   -0.6526 H         1 <0>         0.1240
     40 H13         9.4119   -7.6112   -0.7354 H         1 <0>         0.1254
     41 H14        10.2113   -9.9354   -0.8304 H         1 <0>         0.1277
     42 H15         8.6026  -11.7975   -0.8417 H         1 <0>         0.1292
     43 H16         5.0185  -11.3938   -0.7157 H         1 <0>         0.3992
     44 H17         6.2875  -12.4929   -0.7817 H         1 <0>         0.4043
@<TRIPOS>BOND
     1    1    6 ar
     2    1    2 ar
     3    1   28 1
     4    2    3 ar
     5    2   29 1
     6    3    4 ar
     7    3   30 1
     8    4    5 ar
     9    4    7 1
    10    5    6 ar
    11    5   31 1
    12    6   32 1
    13    7    8 2
    14    7    9 1
    15    9   14 ar
    16    9   10 ar
    17   10   11 ar
    18   10   33 1
    19   11   12 ar
    20   11   34 1
    21   12   13 ar
    22   12   15 1
    23   13   14 ar
    24   13   35 1
    25   14   36 1
    26   15   16 2
    27   15   26 1
    28   16   17 1
    29   16   18 1
    30   17   37 1
    31   17   38 1
    32   18   19 1
    33   19   24 ar
    34   19   20 ar
    35   20   21 ar
    36   20   39 1
    37   21   22 ar
    38   21   40 1
    39   22   23 ar
    40   22   41 1
    41   23   24 ar
    42   23   42 1
    43   24   25 1
    44   25   43 1
    45   25   44 1
    46   26   27 3
@<TRIPOS>MOLECULE
CHEMBL37548__1
   44    46     0     0     0
SMALL
USER_CHARGES

@<TRIPOS>ATOM
      1 C1         -0.5948    1.0431    0.6341 C.ar      1 <0>        -0.0893
      2 C2          0.2690    1.7028   -0.2224 C.ar      1 <0>        -0.1306
      3 C3          1.4789    1.1331   -0.5603 C.ar      1 <0>        -0.0630
      4 C4          1.8313   -0.1123   -0.0359 C.ar      1 <0>        -0.1612
      5 C5          0.9547   -0.7725    0.8279 C.ar      1 <0>        -0.0806
      6 C6         -0.2520   -0.1913    1.1573 C.ar      1 <0>        -0.1315
      7 C7          3.1258   -0.7292   -0.3939 C.2       1 <0>         0.4385
      8 O1          4.0302   -0.0388   -0.8241 O.2       1 <0>        -0.4467
      9 C8          3.3206   -2.1790   -0.2297 C.ar      1 <0>        -0.1572
     10 C9          2.2169   -3.0415   -0.2534 C.ar      1 <0>        -0.0768
     11 C10         2.3981   -4.3846   -0.1017 C.ar      1 <0>        -0.1106
     12 C11         3.6865   -4.9015    0.0780 C.ar      1 <0>         0.0215
     13 C12         4.7897   -4.0402    0.1017 C.ar      1 <0>        -0.1025
     14 C13         4.6104   -2.6974   -0.0556 C.ar      1 <0>        -0.0576
     15 C14         3.8817   -6.3540    0.2429 C.2       1 <0>        -0.1316
     16 C15         4.5835   -7.0754   -0.7183 C.2       1 <0>         0.2160
     17 N1          4.7648   -8.4249   -0.5650 N.pl3     1 <0>        -0.8281
     18 S1          5.2390   -6.2533   -2.1322 S.3       1 <0>         0.0428
     19 C16         4.3155   -6.9177   -3.4777 C.ar      1 <0>        -0.1954
     20 C17         3.2817   -7.8112   -3.2382 C.ar      1 <0>        -0.0730
     21 C18         2.5584   -8.3306   -4.2952 C.ar      1 <0>        -0.1614
     22 C19         2.8620   -7.9630   -5.5933 C.ar      1 <0>        -0.0632
     23 C20         3.8905   -7.0732   -5.8417 C.ar      1 <0>        -0.1835
     24 C21         4.6181   -6.5424   -4.7869 C.ar      1 <0>         0.2495
     25 N2          5.6558   -5.6378   -5.0354 N.pl3     1 <0>        -0.8695
     26 C22         3.3490   -7.0222    1.3920 C.1       1 <0>         0.2622
     27 N3          2.9264   -7.5522    2.3036 N.1       1 <0>        -0.4281
     28 H1         -1.5389    1.4958    0.8990 H         1 <0>         0.1279
     29 H2         -0.0049    2.6657   -0.6275 H         1 <0>         0.1300
     30 H3          2.1520    1.6488   -1.2292 H         1 <0>         0.1329
     31 H4          1.2209   -1.7360    1.2367 H         1 <0>         0.1368
     32 H5         -0.9308   -0.7007    1.8252 H         1 <0>         0.1300
     33 H6          1.2227   -2.6428   -0.3913 H         1 <0>         0.1365
     34 H7          1.5473   -5.0496   -0.1200 H         1 <0>         0.1291
     35 H8          5.7835   -4.4396    0.2404 H         1 <0>         0.1307
     36 H9          5.4620   -2.0334   -0.0414 H         1 <0>         0.1351
     37 H10         4.3383   -8.8912    0.1709 H         1 <0>         0.4039
     38 H11         5.3198   -8.9141   -1.1925 H         1 <0>         0.4126
     39 H12         3.0423   -8.1011   -2.2257 H         1 <0>         0.1222
     40 H13         1.7539   -9.0261   -4.1068 H         1 <0>         0.1239
     41 H14         2.2941   -8.3724   -6.4157 H         1 <0>         0.1269
     42 H15         4.1251   -6.7886   -6.8568 H         1 <0>         0.1288
     43 H16         6.1663   -5.2705   -4.2969 H         1 <0>         0.3993
     44 H17         5.8649   -5.3778   -5.9462 H         1 <0>         0.4042
@<TRIPOS>BOND
     1    1    6 ar
     2    1    2 ar
     3    1   28 1
     4    2    3 ar
     5    2   29 1
     6    3    4 ar
     7    3   30 1
     8    4    5 ar
     9    4    7 1
    10    5    6 ar
    11    5   31 1
    12    6   32 1
    13    7    8 2
    14    7    9 1
    15    9   14 ar
    16    9   10 ar
    17   10   11 ar
    18   10   33 1
    19   11   12 ar
    20   11   34 1
    21   12   13 ar
    22   12   15 1
    23   13   14 ar
    24   13   35 1
    25   14   36 1
    26   15   16 2
    27   15   26 1
    28   16   17 1
    29   16   18 1
    30   17   37 1
    31   17   38 1
    32   18   19 1
    33   19   24 ar
    34   19   20 ar
    35   20   21 ar
    36   20   39 1
    37   21   22 ar
    38   21   40 1
    39   22   23 ar
    40   22   41 1
    41   23   24 ar
    42   23   42 1
    43   24   25 1
    44   25   43 1
    45   25   44 1
    46   26   27 3
@<TRIPOS>MOLECULE
CHEMBL522892
   51    55     0     0     0
SMALL
USER_CHARGES

@<TRIPOS>ATOM
      1 C1          0.8051    0.2324   -1.4077 C.3       1 <0>        -0.0469
      2 N1          0.6955   -1.2174   -1.1983 N.4       1 <0>        -0.3836
      3 C2         -0.7220   -1.5942   -1.1286 C.3       1 <0>        -0.0238
      4 C3         -0.8398   -3.1185   -1.0252 C.3       1 <0>         0.1007
      5 N2         -0.0339   -3.5719    0.1190 N.pl3     1 <0>        -0.6429
      6 C4          1.3580   -3.1056    0.2148 C.3       1 <0>         0.0996
      7 C5          1.3720   -1.5820    0.0529 C.3       1 <0>        -0.0227
      8 C6         -0.5760   -4.4220    1.0884 C.ar      1 <0>         0.2062
      9 C7         -1.9255   -4.7646    1.0342 C.ar      1 <0>        -0.1830
     10 C8         -2.4703   -5.5930    1.9732 C.ar      1 <0>        -0.0215
     11 C9         -1.6721   -6.1058    3.0008 C.ar      1 <0>         0.0284
     12 C10        -0.3102   -5.7623    3.0579 C.ar      1 <0>         0.0883
     13 C11         0.2327   -4.9242    2.0953 C.ar      1 <0>        -0.1814
     14 N3          0.2069   -6.4109    4.1649 N.pl3     1 <0>        -0.5840
     15 H1          1.1247   -6.3750    4.4767 H         1 <0>         0.4352
     16 C12        -0.8212   -7.1137    4.7396 C.2       1 <0>         0.3897
     17 N4         -1.9231   -6.9297    4.0499 N.2       1 <0>        -0.5167
     18 C13        -0.7066   -7.9483    5.9473 C.2       1 <0>        -0.2897
     19 C14        -1.7912   -8.7175    6.3752 C.2       1 <0>         0.3714
     20 C15        -1.6270   -9.5324    7.5845 C.ar      1 <0>        -0.1860
     21 C16        -0.3945   -9.5089    8.2620 C.ar      1 <0>         0.2412
     22 C17        -0.2309  -10.2780    9.4084 C.ar      1 <0>        -0.1738
     23 C18        -1.2716  -11.0554    9.8720 C.ar      1 <0>        -0.0195
     24 C19        -2.4877  -11.0809    9.2068 C.ar      1 <0>        -0.1807
     25 C20        -2.6747  -10.3254    8.0671 C.ar      1 <0>         0.1693
     26 F1         -3.8609  -10.3517    7.4210 F         1 <0>        -0.1207
     27 N5          0.6390   -8.7260    7.7867 N.am      1 <0>        -0.6329
     28 H2          1.4842   -8.7182    8.2626 H         1 <0>         0.4234
     29 C21         0.5046   -7.9802    6.6776 C.2       1 <0>         0.5800
     30 O1          1.4476   -7.3102    6.2941 O.2       1 <0>        -0.5593
     31 N6         -2.9786   -8.7110    5.6835 N.pl3     1 <0>        -0.8071
     32 H3          1.8569    0.5124   -1.4676 H         1 <0>         0.1245
     33 H4          0.3033    0.5044   -2.3363 H         1 <0>         0.1249
     34 H5          0.3366    0.7563   -0.5745 H         1 <0>         0.1214
     35 H6         -1.1777   -1.1342   -0.2517 H         1 <0>         0.1326
     36 H7         -1.2341   -1.2502   -2.0271 H         1 <0>         0.1407
     37 H8         -1.8827   -3.3957   -0.8715 H         1 <0>         0.1284
     38 H9         -0.4668   -3.5776   -1.9408 H         1 <0>         0.0875
     39 H10         1.7681   -3.3743    1.1883 H         1 <0>         0.1252
     40 H11         1.9529   -3.5634   -0.5755 H         1 <0>         0.0872
     41 H12         2.4029   -1.2289    0.0249 H         1 <0>         0.1401
     42 H13         0.8530   -1.1223    0.8940 H         1 <0>         0.1324
     43 H14        -2.5461   -4.3713    0.2427 H         1 <0>         0.1289
     44 H15        -3.5176   -5.8518    1.9226 H         1 <0>         0.1348
     45 H16         1.2794   -4.6608    2.1329 H         1 <0>         0.1222
     46 H17         0.7114  -10.2670    9.9359 H         1 <0>         0.1489
     47 H18        -1.1375  -11.6511   10.7629 H         1 <0>         0.1511
     48 H19        -3.2928  -11.6948    9.5826 H         1 <0>         0.1510
     49 H20        -2.9880   -8.4943    4.7380 H         1 <0>         0.4268
     50 H21        -3.8074   -8.9232    6.1406 H         1 <0>         0.4097
     51 H22         1.1321   -1.7012   -1.9686 H         1 <0>         0.4245
@<TRIPOS>BOND
     1    1    2 1
     2    1   32 1
     3    1   33 1
     4    1   34 1
     5    2    7 1
     6    2    3 1
     7    2   51 1
     8    3    4 1
     9    3   35 1
    10    3   36 1
    11    4    5 1
    12    4   37 1
    13    4   38 1
    14    5    6 1
    15    5    8 1
    16    6    7 1
    17    6   39 1
    18    6   40 1
    19    7   41 1
    20    7   42 1
    21    8   13 ar
    22    8    9 ar
    23    9   10 ar
    24    9   43 1
    25   10   11 ar
    26   10   44 1
    27   11   17 1
    28   11   12 ar
    29   12   13 ar
    30   12   14 1
    31   13   45 1
    32   14   15 1
    33   14   16 1
    34   16   17 2
    35   16   18 1
    36   18   29 1
    37   18   19 2
    38   19   20 1
    39   19   31 1
    40   20   25 ar
    41   20   21 ar
    42   21   22 ar
    43   21   27 1
    44   22   23 ar
    45   22   46 1
    46   23   24 ar
    47   23   47 1
    48   24   25 ar
    49   24   48 1
    50   25   26 1
    51   27   28 1
    52   27   29 am
    53   29   30 2
    54   31   49 1
    55   31   50 1
@<TRIPOS>MOLECULE
CHEMBL522892__1
   50    54     0     0     0
SMALL
USER_CHARGES

@<TRIPOS>ATOM
      1 C1          0.8730    0.3059   -1.4180 C.3       1 <0>         0.0243
      2 N1          0.7577   -1.1443   -1.2136 N.3       1 <0>        -0.5426
      3 C2         -0.6486   -1.5684   -1.2321 C.3       1 <0>         0.0377
      4 C3         -0.7177   -3.0988   -1.1981 C.3       1 <0>         0.1263
      5 N2          0.0607   -3.5761   -0.0450 N.pl3     1 <0>        -0.6287
      6 C4          1.4376   -3.0848    0.1165 C.3       1 <0>         0.1258
      7 C5          1.4218   -1.5549    0.0307 C.3       1 <0>         0.0388
      8 C6         -0.4939   -4.4730    0.8738 C.ar      1 <0>         0.2365
      9 C7         -1.8329   -4.8416    0.7616 C.ar      1 <0>        -0.1892
     10 C8         -2.3899   -5.7158    1.6508 C.ar      1 <0>        -0.0222
     11 C9         -1.6146   -6.2498    2.6851 C.ar      1 <0>         0.0050
     12 C10        -0.2632   -5.8802    2.8006 C.ar      1 <0>         0.1008
     13 C11         0.2922   -4.9955    1.8882 C.ar      1 <0>        -0.2075
     14 N3          0.2314   -6.5589    3.8998 N.pl3     1 <0>        -0.5864
     15 H1          1.1375   -6.5154    4.2434 H         1 <0>         0.4318
     16 C12        -0.7992   -7.3041    4.4133 C.2       1 <0>         0.3648
     17 N4         -1.8816   -7.1175    3.6942 N.2       1 <0>        -0.5107
     18 C13        -0.7058   -8.1807    5.5928 C.2       1 <0>        -0.2737
     19 C14        -1.7866   -8.9879    5.9555 C.2       1 <0>         0.3579
     20 C15        -1.6442   -9.8438    7.1389 C.ar      1 <0>        -0.1804
     21 C16        -0.4354   -9.8200    7.8579 C.ar      1 <0>         0.2398
     22 C17        -0.2926  -10.6278    8.9801 C.ar      1 <0>        -0.1747
     23 C18        -1.3304  -11.4436    9.3796 C.ar      1 <0>        -0.0248
     24 C19        -2.5232  -11.4696    8.6734 C.ar      1 <0>        -0.1838
     25 C20        -2.6894  -10.6760    7.5566 C.ar      1 <0>         0.1678
     26 F1         -3.8529  -10.7029    6.8704 F         1 <0>        -0.1214
     27 N5          0.5956   -8.9983    7.4466 N.am      1 <0>        -0.6338
     28 H2          1.4243   -8.9907    7.9506 H         1 <0>         0.4215
     29 C21         0.4811   -8.2146    6.3618 C.2       1 <0>         0.5763
     30 O1          1.4212   -7.5111    6.0350 O.2       1 <0>        -0.5540
     31 N6         -2.9506   -8.9803    5.2249 N.pl3     1 <0>        -0.8096
     32 H3          1.9258    0.5820   -1.4762 H         1 <0>         0.0703
     33 H4          0.3729    0.5828   -2.3461 H         1 <0>         0.0703
     34 H5          0.4058    0.8287   -0.5835 H         1 <0>         0.0257
     35 H6         -1.1627   -1.1616   -0.3612 H         1 <0>         0.0389
     36 H7         -1.1269   -1.2028   -2.1408 H         1 <0>         0.0861
     37 H8         -1.7554   -3.4163   -1.0960 H         1 <0>         0.0886
     38 H9         -0.2963   -3.5049   -2.1177 H         1 <0>         0.0708
     39 H10         1.8249   -3.3932    1.0876 H         1 <0>         0.0860
     40 H11         2.0662   -3.4896   -0.6768 H         1 <0>         0.0703
     41 H12         2.4451   -1.1796    0.0378 H         1 <0>         0.0855
     42 H13         0.8789   -1.1484    0.8840 H         1 <0>         0.0386
     43 H14        -2.4358   -4.4320   -0.0353 H         1 <0>         0.1294
     44 H15        -3.4289   -5.9944    1.5554 H         1 <0>         0.1285
     45 H16         1.3310   -4.7118    1.9707 H         1 <0>         0.1216
     46 H17         0.6315  -10.6169    9.5390 H         1 <0>         0.1468
     47 H18        -1.2125  -12.0692   10.2520 H         1 <0>         0.1482
     48 H19        -3.3264  -12.1138    8.9991 H         1 <0>         0.1484
     49 H20        -2.9336   -8.7292    4.2881 H         1 <0>         0.4276
     50 H21        -3.7891   -9.2261    5.6460 H         1 <0>         0.4068
@<TRIPOS>BOND
     1    1    2 1
     2    1   32 1
     3    1   33 1
     4    1   34 1
     5    2    7 1
     6    2    3 1
     7    3    4 1
     8    3   35 1
     9    3   36 1
    10    4    5 1
    11    4   37 1
    12    4   38 1
    13    5    6 1
    14    5    8 1
    15    6    7 1
    16    6   39 1
    17    6   40 1
    18    7   41 1
    19    7   42 1
    20    8   13 ar
    21    8    9 ar
    22    9   10 ar
    23    9   43 1
    24   10   11 ar
    25   10   44 1
    26   11   17 1
    27   11   12 ar
    28   12   13 ar
    29   12   14 1
    30   13   45 1
    31   14   15 1
    32   14   16 1
    33   16   17 2
    34   16   18 1
    35   18   29 1
    36   18   19 2
    37   19   20 1
    38   19   31 1
    39   20   25 ar
    40   20   21 ar
    41   21   22 ar
    42   21   27 1
    43   22   23 ar
    44   22   46 1
    45   23   24 ar
    46   23   47 1
    47   24   25 ar
    48   24   48 1
    49   25   26 1
    50   27   28 1
    51   27   29 am
    52   29   30 2
    53   31   49 1
    54   31   50 1
@<TRIPOS>MOLECULE
CHEMBL214613
   48    50     0     0     0
SMALL
USER_CHARGES

@<TRIPOS>ATOM
      1 C1          0.9054   -3.2369    0.7763 C.3       1 <0>        -0.1744
      2 C2         -0.3354   -4.1293    0.8468 C.3       1 <0>         0.0982
      3 C3         -0.1984   -5.2737   -0.1594 C.3       1 <0>         0.0642
      4 O1          0.0441   -4.7368   -1.4613 O.3       1 <0>        -0.5692
      5 N1         -1.5254   -3.3372    0.5265 N.pl3     1 <0>        -0.5982
      6 C4         -2.1228   -2.6468    1.4626 C.cat     1 <0>         0.6203
      7 C5         -3.3174   -1.8517    1.1410 C.2       1 <0>        -0.3571
      8 C6         -3.7950   -1.7036   -0.1603 C.2       1 <0>         0.5432
      9 N2         -4.8990   -0.9481   -0.3103 N.am      1 <0>        -0.7230
     10 S1         -5.2894   -0.4496    1.2368 S.3       1 <0>         0.5490
     11 C7         -4.0683   -1.1888    2.1168 C.2       1 <0>         0.1733
     12 N3         -3.8548   -1.1503    3.4741 N.pl3     1 <0>        -0.6342
     13 C8         -4.8475   -1.6018    4.3519 C.ar      1 <0>         0.1485
     14 C9         -6.0764   -2.0175    3.8562 C.ar      1 <0>        -0.1553
     15 C10        -7.0551   -2.4627    4.7226 C.ar      1 <0>        -0.0822
     16 C11        -6.8111   -2.4944    6.0881 C.ar      1 <0>         0.0730
     17 C12        -5.5837   -2.0788    6.5840 C.ar      1 <0>        -0.0724
     18 C13        -4.6018   -1.6396    5.7183 C.ar      1 <0>        -0.1286
     19 O2         -7.7753   -2.9324    6.9406 O.3       1 <0>        -0.2411
     20 C14        -8.0007   -4.2708    7.0158 C.ar      1 <0>         0.1127
     21 C15        -7.1798   -5.1532    6.3286 C.ar      1 <0>        -0.1815
     22 C16        -7.4096   -6.5134    6.4056 C.ar      1 <0>        -0.0601
     23 C17        -8.4568   -6.9981    7.1672 C.ar      1 <0>        -0.1520
     24 C18        -9.2787   -6.1218    7.8554 C.ar      1 <0>         0.1110
     25 C19        -9.0493   -4.7574    7.7851 C.ar      1 <0>         0.0464
     26 F1         -9.8476   -3.9013    8.4598 F         1 <0>        -0.1151
     27 F2        -10.3014   -6.5975    8.5990 F         1 <0>        -0.1148
     28 O3         -3.2418   -2.2302   -1.1123 O.2       1 <0>        -0.5102
     29 N4         -1.6323   -2.6643    2.7520 N.pl3     1 <0>        -0.8091
     30 H1          1.7908   -3.8262    1.0147 H         1 <0>         0.0949
     31 H2          1.0015   -2.8271   -0.2291 H         1 <0>         0.0894
     32 H3          0.8078   -2.4216    1.4932 H         1 <0>         0.0635
     33 H4         -0.4315   -4.5391    1.8523 H         1 <0>         0.1151
     34 H5          0.6345   -5.9144    0.1303 H         1 <0>         0.0855
     35 H6         -1.1185   -5.8578   -0.1728 H         1 <0>         0.0647
     36 H7          0.1417   -5.4072   -2.1513 H         1 <0>         0.4003
     37 H8         -3.0163   -0.8103    3.8237 H         1 <0>         0.4322
     38 H9         -6.2667   -1.9923    2.7934 H         1 <0>         0.1324
     39 H10        -8.0108   -2.7860    4.3373 H         1 <0>         0.1478
     40 H11        -5.3947   -2.1030    7.6471 H         1 <0>         0.1512
     41 H12        -3.6448   -1.3207    6.1040 H         1 <0>         0.1464
     42 H13        -6.3612   -4.7768    5.7331 H         1 <0>         0.1415
     43 H14        -6.7703   -7.1993    5.8696 H         1 <0>         0.1466
     44 H15        -8.6341   -8.0618    7.2252 H         1 <0>         0.1537
     45 H16        -0.7984   -3.1195    2.9476 H         1 <0>         0.4275
     46 H17        -2.1214   -2.2214    3.4630 H         1 <0>         0.4239
     47 H18        -1.8703   -3.3249   -0.3801 H         1 <0>         0.4538
     48 H19        -5.3651   -0.7386   -1.1347 H         1 <0>         0.4682
@<TRIPOS>BOND
     1    1    2 1
     2    1   30 1
     3    1   31 1
     4    1   32 1
     5    2    3 1
     6    2    5 1
     7    2   33 1
     8    3    4 1
     9    3   34 1
    10    3   35 1
    11    4   36 1
    12    5    6 2
    13    5   47 1
    14    6    7 1
    15    6   29 1
    16    7   11 2
    17    7    8 1
    18    8    9 am
    19    8   28 2
    20    9   10 1
    21    9   48 1
    22   10   11 1
    23   11   12 1
    24   12   13 1
    25   12   37 1
    26   13   18 ar
    27   13   14 ar
    28   14   15 ar
    29   14   38 1
    30   15   16 ar
    31   15   39 1
    32   16   17 ar
    33   16   19 1
    34   17   18 ar
    35   17   40 1
    36   18   41 1
    37   19   20 1
    38   20   25 ar
    39   20   21 ar
    40   21   22 ar
    41   21   42 1
    42   22   23 ar
    43   22   43 1
    44   23   24 ar
    45   23   44 1
    46   24   25 ar
    47   24   27 1
    48   25   26 1
    49   29   45 1
    50   29   46 1
@<TRIPOS>MOLECULE
CHEMBL214613__1
   48    50     0     0     0
SMALL
USER_CHARGES

@<TRIPOS>ATOM
      1 C1          2.5333    3.9483   -3.4001 C.3       1 <0>        -0.1729
      2 C2          1.6211    3.0533   -2.5587 C.3       1 <0>         0.0996
      3 C3          0.1667    3.4919   -2.7416 C.3       1 <0>         0.0638
      4 O1         -0.1597    3.4908   -4.1328 O.3       1 <0>        -0.5698
      5 N1          1.7694    1.6613   -2.9906 N.pl3     1 <0>        -0.5984
      6 C4          2.7330    0.9245   -2.5024 C.cat     1 <0>         0.6206
      7 C5          2.8819   -0.4729   -2.9359 C.2       1 <0>        -0.3570
      8 C6          1.9651   -1.1018   -3.7770 C.2       1 <0>         0.5436
      9 N2          2.2253   -2.3838   -4.0941 N.am      1 <0>        -0.7229
     10 S1          3.6496   -2.7412   -3.2953 S.3       1 <0>         0.5490
     11 C7          3.9575   -1.2750   -2.5421 C.2       1 <0>         0.1734
     12 N3          5.0145   -0.9417   -1.7291 N.pl3     1 <0>        -0.6340
     13 C8          6.3257   -1.0412   -2.2096 C.ar      1 <0>         0.1483
     14 C9          6.5634   -1.5495   -3.4799 C.ar      1 <0>        -0.1549
     15 C10         7.8568   -1.6474   -3.9531 C.ar      1 <0>        -0.0822
     16 C11         8.9190   -1.2385   -3.1595 C.ar      1 <0>         0.0732
     17 C12         8.6823   -0.7310   -1.8901 C.ar      1 <0>        -0.0725
     18 C13         7.3889   -0.6264   -1.4182 C.ar      1 <0>        -0.1285
     19 O2         10.1924   -1.3356   -3.6259 O.3       1 <0>        -0.2412
     20 C14        10.6081   -0.4210   -4.5415 C.ar      1 <0>         0.1125
     21 C15         9.7851    0.6417   -4.8851 C.ar      1 <0>        -0.1814
     22 C16        10.2086    1.5708   -5.8159 C.ar      1 <0>        -0.0599
     23 C17        11.4524    1.4442   -6.4062 C.ar      1 <0>        -0.1519
     24 C18        12.2778    0.3858   -6.0666 C.ar      1 <0>         0.1109
     25 C19        11.8596   -0.5457   -5.1303 C.ar      1 <0>         0.0463
     26 F1         12.6658   -1.5764   -4.7943 F         1 <0>        -0.1151
     27 F2         13.4928    0.2640   -6.6447 F         1 <0>        -0.1149
     28 O3          0.9794   -0.5213   -4.2025 O.2       1 <0>        -0.5112
     29 N4          3.6101    1.4580   -1.5808 N.pl3     1 <0>        -0.8091
     30 H1          3.5694    3.6358   -3.2698 H         1 <0>         0.0643
     31 H2          2.2574    3.8625   -4.4511 H         1 <0>         0.0883
     32 H3          2.4229    4.9840   -3.0788 H         1 <0>         0.0943
     33 H4          1.8970    3.1391   -1.5077 H         1 <0>         0.1137
     34 H5         -0.4903    2.8007   -2.2137 H         1 <0>         0.0652
     35 H6          0.0367    4.4963   -2.3387 H         1 <0>         0.0854
     36 H7         -1.0689    3.7593   -4.3237 H         1 <0>         0.4006
     37 H8          4.8519   -0.6375   -0.8225 H         1 <0>         0.4321
     38 H9          5.7367   -1.8684   -4.0975 H         1 <0>         0.1324
     39 H10         8.0418   -2.0426   -4.9410 H         1 <0>         0.1479
     40 H11         9.5096   -0.4136   -1.2726 H         1 <0>         0.1512
     41 H12         7.2044   -0.2269   -0.4319 H         1 <0>         0.1463
     42 H13         8.8132    0.7425   -4.4252 H         1 <0>         0.1416
     43 H14         9.5667    2.3973   -6.0830 H         1 <0>         0.1467
     44 H15        11.7805    2.1719   -7.1337 H         1 <0>         0.1537
     45 H16         3.4661    2.3531   -1.2359 H         1 <0>         0.4270
     46 H17         4.3708    0.9380   -1.2776 H         1 <0>         0.4240
     47 H18         1.1527    1.2862   -3.6386 H         1 <0>         0.4539
     48 H19         1.7013   -2.9713   -4.6609 H         1 <0>         0.4683
@<TRIPOS>BOND
     1    1    2 1
     2    1   30 1
     3    1   31 1
     4    1   32 1
     5    2    3 1
     6    2    5 1
     7    2   33 1
     8    3    4 1
     9    3   34 1
    10    3   35 1
    11    4   36 1
    12    5    6 2
    13    5   47 1
    14    6    7 1
    15    6   29 1
    16    7   11 2
    17    7    8 1
    18    8    9 am
    19    8   28 2
    20    9   10 1
    21    9   48 1
    22   10   11 1
    23   11   12 1
    24   12   13 1
    25   12   37 1
    26   13   18 ar
    27   13   14 ar
    28   14   15 ar
    29   14   38 1
    30   15   16 ar
    31   15   39 1
    32   16   17 ar
    33   16   19 1
    34   17   18 ar
    35   17   40 1
    36   18   41 1
    37   19   20 1
    38   20   25 ar
    39   20   21 ar
    40   21   22 ar
    41   21   42 1
    42   22   23 ar
    43   22   43 1
    44   23   24 ar
    45   23   44 1
    46   24   25 ar
    47   24   27 1
    48   25   26 1
    49   29   45 1
    50   29   46 1
@<TRIPOS>MOLECULE
CHEMBL436137
   66    70     0     0     0
SMALL
USER_CHARGES

@<TRIPOS>ATOM
      1 C1          0.6297    1.6950    0.0760 C.3       1 <0>        -0.1250
      2 C2          0.3918    0.2107   -0.0306 C.ar      1 <0>        -0.0594
      3 C3          0.4364   -0.4099   -1.2624 C.ar      1 <0>        -0.1249
      4 C4          0.2181   -1.7722   -1.3617 C.ar      1 <0>        -0.1004
      5 C5         -0.0458   -2.5201   -0.2284 C.ar      1 <0>        -0.1252
      6 C6         -0.0933   -1.9100    1.0086 C.ar      1 <0>        -0.0601
      7 C7          0.1319   -0.5387    1.1154 C.ar      1 <0>        -0.0684
      8 C8          0.0892    0.1216    2.4429 C.ar      1 <0>        -0.0180
      9 C9          1.0535   -0.2014    3.4120 C.ar      1 <0>        -0.0463
     10 C10         1.0373    0.3891    4.6357 C.ar      1 <0>        -0.0741
     11 C11         0.0466    1.3359    4.9434 C.ar      1 <0>         0.1888
     12 C12        -0.9337    1.6706    3.9718 C.ar      1 <0>        -0.0192
     13 C13        -0.8959    1.0533    2.7130 C.ar      1 <0>        -0.0482
     14 N1         -1.8700    2.5747    4.2813 N.ar      1 <0>        -0.1048
     15 N2         -1.8694    3.1249    5.4469 N.ar      1 <0>        -0.2892
     16 C14        -0.9559    2.8222    6.3718 C.ar      1 <0>         0.4884
     17 N3         -0.0017    1.9388    6.1373 N.ar      1 <0>        -0.4990
     18 N4         -1.0094    3.4481    7.6051 N.pl3     1 <0>        -0.6320
     19 C15        -2.0785    4.2983    7.9129 C.ar      1 <0>         0.1447
     20 C16        -3.3655    3.9710    7.5069 C.ar      1 <0>        -0.0718
     21 C17        -4.4194    4.8099    7.8113 C.ar      1 <0>        -0.1154
     22 C18        -4.1926    5.9793    8.5220 C.ar      1 <0>         0.0980
     23 C19        -2.9073    6.3072    8.9275 C.ar      1 <0>        -0.1792
     24 C20        -1.8532    5.4664    8.6293 C.ar      1 <0>        -0.1019
     25 O1         -5.2309    6.8050    8.8209 O.3       1 <0>        -0.3275
     26 C21        -4.9251    7.9922    9.5552 C.3       1 <0>         0.0270
     27 C22        -6.2093    8.7883    9.7955 C.3       1 <0>         0.0037
     28 N5         -7.1092    8.0161   10.6625 N.4       1 <0>        -0.3956
     29 C23        -6.5439    7.9216   12.0328 C.3       1 <0>        -0.0103
     30 C24        -7.7853    7.6167   12.9083 C.3       1 <0>        -0.1448
     31 C25        -8.8926    8.4690   12.2467 C.3       1 <0>        -0.1451
     32 C26        -8.4034    8.7171   10.8078 C.3       1 <0>        -0.0086
     33 C27         2.0807    0.0282    5.6615 C.3       1 <0>        -0.1088
     34 C28        -0.3820   -2.7260    2.2422 C.3       1 <0>        -0.1197
     35 H1          1.6938    1.8831    0.2189 H         1 <0>         0.0732
     36 H2          0.2940    2.1834   -0.8389 H         1 <0>         0.0715
     37 H3          0.0733    2.0921    0.9250 H         1 <0>         0.0688
     38 H4          0.6417    0.1692   -2.1506 H         1 <0>         0.1264
     39 H5          0.2536   -2.2537   -2.3278 H         1 <0>         0.1262
     40 H6         -0.2155   -3.5835   -0.3118 H         1 <0>         0.1265
     41 H7          1.8176   -0.9289    3.1815 H         1 <0>         0.1446
     42 H8         -1.6320    1.3008    1.9625 H         1 <0>         0.1496
     43 H9         -0.3064    3.2977    8.2563 H         1 <0>         0.4279
     44 H10        -3.5422    3.0609    6.9529 H         1 <0>         0.1391
     45 H11        -5.4204    4.5555    7.4956 H         1 <0>         0.1378
     46 H12        -2.7314    7.2182    9.4802 H         1 <0>         0.1318
     47 H13        -0.8531    5.7196    8.9490 H         1 <0>         0.1352
     48 H14        -4.4802    7.7225   10.5130 H         1 <0>         0.0848
     49 H15        -4.2217    8.6002    8.9862 H         1 <0>         0.1081
     50 H16        -5.9651    9.7353   10.2768 H         1 <0>         0.1481
     51 H17        -6.7008    8.9816    8.8419 H         1 <0>         0.1415
     52 H18        -5.8202    7.1089   12.0952 H         1 <0>         0.1335
     53 H19        -6.0884    8.8671   12.3271 H         1 <0>         0.1346
     54 H20        -8.0368    6.5570   12.8653 H         1 <0>         0.0983
     55 H21        -7.6183    7.9331   13.9379 H         1 <0>         0.1170
     56 H22        -9.8356    7.9224   12.2368 H         1 <0>         0.1055
     57 H23        -9.0083    9.4151   12.7754 H         1 <0>         0.1042
     58 H24        -8.2677    9.7856   10.6408 H         1 <0>         0.1312
     59 H25        -9.1249    8.3160   10.0960 H         1 <0>         0.1330
     60 H26         2.9394    0.6911    5.5550 H         1 <0>         0.0769
     61 H27         1.6601    0.1363    6.6612 H         1 <0>         0.0786
     62 H28         2.3973   -1.0038    5.5102 H         1 <0>         0.0738
     63 H29         0.5544   -3.0931    2.6624 H         1 <0>         0.0743
     64 H30        -0.8913   -2.1039    2.9783 H         1 <0>         0.0654
     65 H31        -1.0179   -3.5710    1.9784 H         1 <0>         0.0711
     66 H32        -7.2542    7.0935   10.2806 H         1 <0>         0.4340
@<TRIPOS>BOND
     1    1    2 1
     2    1   35 1
     3    1   36 1
     4    1   37 1
     5    2    7 ar
     6    2    3 ar
     7    3    4 ar
     8    3   38 1
     9    4    5 ar
    10    4   39 1
    11    5    6 ar
    12    5   40 1
    13    6    7 ar
    14    6   34 1
    15    7    8 1
    16    8   13 ar
    17    8    9 ar
    18    9   10 ar
    19    9   41 1
    20   10   11 ar
    21   10   33 1
    22   11   17 ar
    23   11   12 ar
    24   12   13 ar
    25   12   14 ar
    26   13   42 1
    27   14   15 ar
    28   15   16 ar
    29   16   17 ar
    30   16   18 1
    31   18   19 1
    32   18   43 1
    33   19   24 ar
    34   19   20 ar
    35   20   21 ar
    36   20   44 1
    37   21   22 ar
    38   21   45 1
    39   22   23 ar
    40   22   25 1
    41   23   24 ar
    42   23   46 1
    43   24   47 1
    44   25   26 1
    45   26   27 1
    46   26   48 1
    47   26   49 1
    48   27   28 1
    49   27   50 1
    50   27   51 1
    51   28   32 1
    52   28   29 1
    53   28   66 1
    54   29   30 1
    55   29   52 1
    56   29   53 1
    57   30   31 1
    58   30   54 1
    59   30   55 1
    60   31   32 1
    61   31   56 1
    62   31   57 1
    63   32   58 1
    64   32   59 1
    65   33   60 1
    66   33   61 1
    67   33   62 1
    68   34   63 1
    69   34   64 1
    70   34   65 1
@<TRIPOS>MOLECULE
CHEMBL214683
   58    61     0     0     0
SMALL
USER_CHARGES

@<TRIPOS>ATOM
      1 C1         -1.7270    1.2635    0.1664 C.ar      1 <0>        -0.1271
      2 C2         -1.3688    2.2072    1.1085 C.ar      1 <0>        -0.0922
      3 C3         -0.9850    1.8072    2.3805 C.ar      1 <0>         0.0742
      4 C4         -0.9613    0.4588    2.7068 C.ar      1 <0>        -0.0692
      5 C5         -1.3197   -0.4859    1.7658 C.ar      1 <0>        -0.1525
      6 C6         -1.7035   -0.0863    0.4923 C.ar      1 <0>         0.1446
      7 N1         -2.0670   -1.0437   -0.4623 N.pl3     1 <0>        -0.6363
      8 C7         -2.0929   -2.3757   -0.1244 C.2       1 <0>         0.1751
      9 C8         -3.1735   -3.2617   -0.1790 C.2       1 <0>        -0.3583
     10 C9         -2.8816   -4.5608    0.2338 C.2       1 <0>         0.5452
     11 N2         -1.6153   -4.7936    0.6268 N.am      1 <0>        -0.7223
     12 S1         -0.8345   -3.3268    0.4445 S.3       1 <0>         0.5504
     13 O1         -3.7285   -5.4396    0.2391 O.2       1 <0>        -0.5157
     14 C10        -4.5112   -2.8552   -0.6352 C.cat     1 <0>         0.6223
     15 N3         -5.4525   -3.7510   -0.7807 N.pl3     1 <0>        -0.6071
     16 C11        -6.7851   -3.3461   -1.2351 C.3       1 <0>         0.0658
     17 C12        -7.6906   -4.5765   -1.3202 C.3       1 <0>         0.0404
     18 N4         -9.0268   -4.1705   -1.7759 N.3       1 <0>        -0.5348
     19 C13        -8.9838   -3.6756   -3.1589 C.3       1 <0>         0.0480
     20 C14       -10.3765   -3.1899   -3.5677 C.3       1 <0>         0.0569
     21 N5        -11.3360   -4.2952   -3.4364 N.3       1 <0>        -0.6942
     22 C15       -11.3790   -4.7900   -2.0534 C.3       1 <0>         0.0566
     23 C16        -9.9864   -5.2758   -1.6447 C.3       1 <0>         0.0566
     24 N6         -4.7729   -1.5287   -0.9096 N.pl3     1 <0>        -0.8031
     25 O2         -0.6316    2.7369    3.3074 O.3       1 <0>        -0.2354
     26 C17        -1.6016    3.5569    3.7906 C.ar      1 <0>         0.1385
     27 C18        -2.9228    3.3687    3.4119 C.ar      1 <0>        -0.1813
     28 C19        -3.9078    4.2040    3.9053 C.ar      1 <0>         0.0043
     29 C20        -3.5766    5.2272    4.7764 C.ar      1 <0>        -0.1240
     30 C21        -2.2607    5.4170    5.1549 C.ar      1 <0>        -0.0572
     31 C22        -1.2728    4.5809    4.6688 C.ar      1 <0>        -0.0576
     32 Cl1         0.3785    4.8156    5.1503 Cl        1 <0>        -0.0350
     33 Cl2        -5.5613    3.9695    3.4314 Cl        1 <0>        -0.0513
     34 H1         -2.0296    1.5752   -0.8224 H         1 <0>         0.1453
     35 H2         -1.3870    3.2569    0.8552 H         1 <0>         0.1481
     36 H3         -0.6622    0.1482    3.6969 H         1 <0>         0.1504
     37 H4         -1.3009   -1.5355    2.0198 H         1 <0>         0.1331
     38 H5         -2.3006   -0.7669   -1.3621 H         1 <0>         0.4338
     39 H6         -7.2083   -2.6318   -0.5289 H         1 <0>         0.1117
     40 H7         -6.7084   -2.8827   -2.2187 H         1 <0>         0.1027
     41 H8         -7.2674   -5.2909   -2.0264 H         1 <0>         0.0560
     42 H9         -7.7674   -5.0399   -0.3366 H         1 <0>         0.0957
     43 H10        -8.2759   -2.8497   -3.2278 H         1 <0>         0.0760
     44 H11        -8.6698   -4.4805   -3.8236 H         1 <0>         0.0503
     45 H12       -10.6790   -2.3668   -2.9202 H         1 <0>         0.0423
     46 H13       -10.3535   -2.8492   -4.6028 H         1 <0>         0.0845
     47 H14       -12.2538   -4.0163   -3.7494 H         1 <0>         0.3527
     48 H15       -11.6930   -3.9852   -1.3888 H         1 <0>         0.0435
     49 H16       -12.0869   -5.6160   -1.9845 H         1 <0>         0.0872
     50 H17        -9.6838   -6.0988   -2.2921 H         1 <0>         0.0506
     51 H18       -10.0093   -5.6165   -0.6095 H         1 <0>         0.0855
     52 H19        -4.0588   -0.8739   -0.8640 H         1 <0>         0.4266
     53 H20        -5.6712   -1.2509   -1.1482 H         1 <0>         0.4289
     54 H21        -3.1816    2.5705    2.7319 H         1 <0>         0.1454
     55 H22        -4.3474    5.8786    5.1607 H         1 <0>         0.1505
     56 H23        -2.0047    6.2164    5.8345 H         1 <0>         0.1569
     57 H24        -5.2685   -4.6837   -0.5877 H         1 <0>         0.4494
     58 H25        -1.2380   -5.6295    0.9427 H         1 <0>         0.4684
@<TRIPOS>BOND
     1    1    6 ar
     2    1    2 ar
     3    1   34 1
     4    2    3 ar
     5    2   35 1
     6    3    4 ar
     7    3   25 1
     8    4    5 ar
     9    4   36 1
    10    5    6 ar
    11    5   37 1
    12    6    7 1
    13    7    8 1
    14    7   38 1
    15    8   12 1
    16    8    9 2
    17    9   10 1
    18    9   14 1
    19   10   11 am
    20   10   13 2
    21   11   12 1
    22   11   58 1
    23   14   15 2
    24   14   24 1
    25   15   16 1
    26   15   57 1
    27   16   17 1
    28   16   39 1
    29   16   40 1
    30   17   18 1
    31   17   41 1
    32   17   42 1
    33   18   23 1
    34   18   19 1
    35   19   20 1
    36   19   43 1
    37   19   44 1
    38   20   21 1
    39   20   45 1
    40   20   46 1
    41   21   22 1
    42   21   47 1
    43   22   23 1
    44   22   48 1
    45   22   49 1
    46   23   50 1
    47   23   51 1
    48   24   52 1
    49   24   53 1
    50   25   26 1
    51   26   31 ar
    52   26   27 ar
    53   27   28 ar
    54   27   54 1
    55   28   29 ar
    56   28   33 1
    57   29   30 ar
    58   29   55 1
    59   30   31 ar
    60   30   56 1
    61   31   32 1
@<TRIPOS>MOLECULE
CHEMBL282361
   74    78     0     0     0
SMALL
USER_CHARGES

@<TRIPOS>ATOM
      1 C1         -1.9558    1.1716   -6.3711 C.3       1 <0>         0.0230
      2 O1         -1.8934   -0.2530   -6.4643 O.3       1 <0>        -0.2973
      3 C2         -0.7698   -0.8541   -5.9897 C.ar      1 <0>         0.1274
      4 C3          0.2280   -0.0937   -5.4509 C.ar      1 <0>        -0.1581
      5 C4          1.3879   -0.7109   -4.9602 C.ar      1 <0>        -0.0991
      6 C5          1.5206   -2.1190   -5.0250 C.ar      1 <0>         0.1672
      7 C6          0.4816   -2.8787   -5.5837 C.ar      1 <0>        -0.1774
      8 C7         -0.6489   -2.2491   -6.0530 C.ar      1 <0>         0.1595
      9 O2         -1.6559   -2.9872   -6.5885 O.3       1 <0>        -0.2923
     10 C8         -1.4734   -4.4040   -6.6247 C.3       1 <0>         0.0547
     11 C9         -2.7022   -5.0606   -7.2571 C.3       1 <0>        -0.1159
     12 C10        -2.5067   -6.5775   -7.2959 C.3       1 <0>         0.0586
     13 N1         -3.6865   -7.2079   -7.9031 N.3       1 <0>        -0.5363
     14 C11        -4.8725   -7.0364   -7.0514 C.3       1 <0>         0.0125
     15 C12        -6.0879   -7.6543   -7.7478 C.3       1 <0>         0.0624
     16 O3         -5.8198   -9.0300   -8.0320 O.3       1 <0>        -0.3852
     17 C13        -4.6716   -9.2337   -8.8599 C.3       1 <0>         0.0626
     18 C14        -3.4419   -8.6318   -8.1748 C.3       1 <0>         0.0174
     19 N2          2.6269   -2.7156   -4.5568 N.ar      1 <0>        -0.4619
     20 C15         3.6122   -2.0344   -4.0300 C.ar      1 <0>         0.1797
     21 C16         3.5658   -0.6349   -3.9247 C.ar      1 <0>        -0.0881
     22 C17         2.4368    0.0522   -4.3964 C.ar      1 <0>         0.2630
     23 N3          2.3525    1.4271   -4.3123 N.pl3     1 <0>        -0.7037
     24 C18         2.7439    2.2201   -5.3974 C.ar      1 <0>         0.2261
     25 C19         3.0959    1.6242   -6.6017 C.ar      1 <0>        -0.1866
     26 C20         3.4819    2.4060   -7.6719 C.ar      1 <0>        -0.0241
     27 C21         3.5180    3.7891   -7.5445 C.ar      1 <0>        -0.1554
     28 C22         3.1655    4.3850   -6.3398 C.ar      1 <0>        -0.0288
     29 C23         2.7749    3.6031   -5.2713 C.ar      1 <0>        -0.1847
     30 S1          4.0113    4.7872   -8.9101 S.3       1 <0>        -0.1559
     31 C24         2.4459    5.2661   -9.6918 C.3       1 <0>        -0.0621
     32 C25         1.7754    4.0281  -10.2908 C.3       1 <0>        -0.1114
     33 C26         0.4551    4.4320  -10.9501 C.3       1 <0>        -0.1170
     34 C27         0.7291    5.4503  -12.0586 C.3       1 <0>        -0.1222
     35 C28         1.3997    6.6882  -11.4596 C.3       1 <0>        -0.1140
     36 C29         2.7200    6.2844  -10.8003 C.3       1 <0>        -0.0996
     37 C30         4.6594    0.0835   -3.3429 C.1       1 <0>         0.2536
     38 N4          5.5269    0.6535   -2.8813 N.1       1 <0>        -0.3935
     39 H1         -1.8829    1.4709   -5.3255 H         1 <0>         0.0579
     40 H2         -1.1303    1.6089   -6.9326 H         1 <0>         0.0587
     41 H3         -2.9019    1.5216   -6.7840 H         1 <0>         0.1070
     42 H4          0.1245    0.9802   -5.4029 H         1 <0>         0.1476
     43 H5          0.5666   -3.9539   -5.6410 H         1 <0>         0.1564
     44 H6         -0.5895   -4.6415   -7.2166 H         1 <0>         0.0711
     45 H7         -1.3427   -4.7796   -5.6098 H         1 <0>         0.0685
     46 H8         -3.5861   -4.8231   -6.6651 H         1 <0>         0.0765
     47 H9         -2.8329   -4.6850   -8.2720 H         1 <0>         0.0865
     48 H10        -1.6228   -6.8150   -7.8878 H         1 <0>         0.0818
     49 H11        -2.3760   -6.9531   -6.2810 H         1 <0>         0.0405
     50 H12        -4.7090   -7.5337   -6.0953 H         1 <0>         0.0447
     51 H13        -5.0499   -5.9740   -6.8842 H         1 <0>         0.0903
     52 H14        -6.9579   -7.5802   -7.0953 H         1 <0>         0.0993
     53 H15        -6.2838   -7.1218   -8.6785 H         1 <0>         0.0611
     54 H16        -4.5173  -10.3020   -9.0118 H         1 <0>         0.0998
     55 H17        -4.8263   -8.7472   -9.8230 H         1 <0>         0.0611
     56 H18        -2.5750   -8.7341   -8.8276 H         1 <0>         0.0883
     57 H19        -3.2555   -9.1546   -7.2367 H         1 <0>         0.0448
     58 H20         4.4822   -2.5615   -3.6670 H         1 <0>         0.1741
     59 H21         2.0220    1.8440   -3.5012 H         1 <0>         0.4187
     60 H22         3.0678    0.5491   -6.7008 H         1 <0>         0.1246
     61 H23         3.7562    1.9426   -8.6081 H         1 <0>         0.1327
     62 H24         3.1935    5.4601   -6.2405 H         1 <0>         0.1329
     63 H25         2.4970    4.0665   -4.3362 H         1 <0>         0.1294
     64 H26         1.7878    5.7102   -8.9450 H         1 <0>         0.0844
     65 H27         2.4335    3.5840  -11.0377 H         1 <0>         0.0735
     66 H28         1.5802    3.3027   -9.5011 H         1 <0>         0.0619
     67 H29        -0.0226    3.5501  -11.3769 H         1 <0>         0.0651
     68 H30        -0.2030    4.8762  -10.2033 H         1 <0>         0.0605
     69 H31         1.3872    5.0062  -12.8054 H         1 <0>         0.0641
     70 H32        -0.2115    5.7381  -12.5283 H         1 <0>         0.0637
     71 H33         1.5949    7.4137  -12.2493 H         1 <0>         0.0685
     72 H34         0.7416    7.1324  -10.7128 H         1 <0>         0.0631
     73 H35         3.1977    7.1663  -10.3735 H         1 <0>         0.0717
     74 H36         3.3781    5.8402  -11.5471 H         1 <0>         0.0719
@<TRIPOS>BOND
     1    1    2 1
     2    1   39 1
     3    1   40 1
     4    1   41 1
     5    2    3 1
     6    3    8 ar
     7    3    4 ar
     8    4    5 ar
     9    4   42 1
    10    5   22 ar
    11    5    6 ar
    12    6    7 ar
    13    6   19 ar
    14    7    8 ar
    15    7   43 1
    16    8    9 1
    17    9   10 1
    18   10   11 1
    19   10   44 1
    20   10   45 1
    21   11   12 1
    22   11   46 1
    23   11   47 1
    24   12   13 1
    25   12   48 1
    26   12   49 1
    27   13   18 1
    28   13   14 1
    29   14   15 1
    30   14   50 1
    31   14   51 1
    32   15   16 1
    33   15   52 1
    34   15   53 1
    35   16   17 1
    36   17   18 1
    37   17   54 1
    38   17   55 1
    39   18   56 1
    40   18   57 1
    41   19   20 ar
    42   20   21 ar
    43   20   58 1
    44   21   22 ar
    45   21   37 1
    46   22   23 1
    47   23   24 1
    48   23   59 1
    49   24   29 ar
    50   24   25 ar
    51   25   26 ar
    52   25   60 1
    53   26   27 ar
    54   26   61 1
    55   27   28 ar
    56   27   30 1
    57   28   29 ar
    58   28   62 1
    59   29   63 1
    60   30   31 1
    61   31   36 1
    62   31   32 1
    63   31   64 1
    64   32   33 1
    65   32   65 1
    66   32   66 1
    67   33   34 1
    68   33   67 1
    69   33   68 1
    70   34   35 1
    71   34   69 1
    72   34   70 1
    73   35   36 1
    74   35   71 1
    75   35   72 1
    76   36   73 1
    77   36   74 1
    78   37   38 3
@<TRIPOS>MOLECULE
CHEMBL282361__1
   75    79     0     0     0
SMALL
USER_CHARGES

@<TRIPOS>ATOM
      1 C1          6.4815    1.2426    1.5166 C.3       1 <0>         0.0218
      2 O1          6.5533   -0.1827    1.5887 O.3       1 <0>        -0.3016
      3 C2          5.5901   -0.8135    2.3123 C.ar      1 <0>         0.1239
      4 C3          4.6130   -0.0803    2.9220 C.ar      1 <0>        -0.1493
      5 C4          3.6181   -0.7281    3.6686 C.ar      1 <0>        -0.0958
      6 C5          3.6298   -2.1389    3.7878 C.ar      1 <0>         0.1618
      7 C6          4.6447   -2.8703    3.1524 C.ar      1 <0>        -0.1695
      8 C7          5.6063   -2.2109    2.4207 C.ar      1 <0>         0.1492
      9 O2          6.5847   -2.9216    1.8018 O.3       1 <0>        -0.2939
     10 C8          6.5469   -4.3424    1.9496 C.3       1 <0>         0.0564
     11 C9          7.7189   -4.9657    1.1888 C.3       1 <0>        -0.1505
     12 C10         7.6785   -6.4869    1.3470 C.3       1 <0>        -0.0061
     13 N1          8.8037   -7.0854    0.6165 N.4       1 <0>        -0.3843
     14 C11         8.6389   -6.8408   -0.8230 C.3       1 <0>        -0.0502
     15 C12         9.8126   -7.4650   -1.5818 C.3       1 <0>         0.0361
     16 O3          9.8722   -8.8640   -1.2901 O.3       1 <0>        -0.3562
     17 C13        10.0087   -9.1542    0.1039 C.3       1 <0>         0.0354
     18 C14         8.8353   -8.5331    0.8658 C.3       1 <0>        -0.0434
     19 N2          2.6807   -2.7646    4.4996 N.ar      1 <0>        -0.4647
     20 C15         1.7215   -2.1103    5.1030 C.ar      1 <0>         0.1850
     21 C16         1.6317   -0.7105    5.0381 C.ar      1 <0>        -0.0781
     22 C17         2.5937    0.0064    4.3102 C.ar      1 <0>         0.2659
     23 N3          2.5416    1.3828    4.2226 N.pl3     1 <0>        -0.7059
     24 C18         3.2733    2.1695    5.1199 C.ar      1 <0>         0.2222
     25 C19         4.1498    1.5691    6.0148 C.ar      1 <0>        -0.1879
     26 C20         4.8716    2.3447    6.8997 C.ar      1 <0>        -0.0250
     27 C21         4.7216    3.7260    6.8949 C.ar      1 <0>        -0.1525
     28 C22         3.8451    4.3264    5.9994 C.ar      1 <0>        -0.0278
     29 C23         3.1272    3.5508    5.1114 C.ar      1 <0>        -0.1820
     30 S1          5.6423    4.7162    8.0248 S.3       1 <0>        -0.1529
     31 C24         7.0940    5.2369    7.0698 C.3       1 <0>        -0.0623
     32 C25         7.9672    4.0183    6.7640 C.3       1 <0>        -0.1106
     33 C26         9.1916    4.4575    5.9585 C.3       1 <0>        -0.1162
     34 C27         9.9988    5.4725    6.7703 C.3       1 <0>        -0.1226
     35 C28         9.1257    6.6911    7.0762 C.3       1 <0>        -0.1145
     36 C29         7.9012    6.2519    7.8816 C.3       1 <0>        -0.1005
     37 C30         0.5702   -0.0217    5.7085 C.1       1 <0>         0.2457
     38 N4         -0.2720    0.5247    6.2403 N.1       1 <0>        -0.3807
     39 H1          6.5485    1.6611    2.5208 H         1 <0>         0.0610
     40 H2          7.3065    1.6178    0.9109 H         1 <0>         0.1088
     41 H3          5.5349    1.5363    1.0630 H         1 <0>         0.0603
     42 H4          4.6065    0.9957    2.8299 H         1 <0>         0.1506
     43 H5          4.6686   -3.9470    3.2330 H         1 <0>         0.1537
     44 H6          6.6216   -4.5999    3.0061 H         1 <0>         0.0792
     45 H7          5.6085   -4.7247    1.5479 H         1 <0>         0.0788
     46 H8          7.6443   -4.7082    0.1322 H         1 <0>         0.1005
     47 H9          8.6573   -4.5834    1.5905 H         1 <0>         0.1014
     48 H10         7.7531   -6.7444    2.4036 H         1 <0>         0.1385
     49 H11         6.7401   -6.8692    0.9453 H         1 <0>         0.1362
     50 H12         7.7058   -7.2896   -1.1635 H         1 <0>         0.1408
     51 H13         8.6155   -5.7671   -1.0090 H         1 <0>         0.1446
     52 H14         9.6706   -7.3223   -2.6531 H         1 <0>         0.1427
     53 H15        10.7421   -6.9884   -1.2705 H         1 <0>         0.0820
     54 H16        10.0085  -10.2340    0.2526 H         1 <0>         0.1431
     55 H17        10.9449   -8.7354    0.4729 H         1 <0>         0.0819
     56 H18         8.9577   -8.7156    1.9335 H         1 <0>         0.1443
     57 H19         7.9021   -8.9813    0.5246 H         1 <0>         0.1404
     58 H20         0.9806   -2.6603    5.6642 H         1 <0>         0.1773
     59 H21         1.9978    1.8050    3.5393 H         1 <0>         0.4201
     60 H22         4.2664    0.4954    6.0185 H         1 <0>         0.1225
     61 H23         5.5525    1.8778    7.5960 H         1 <0>         0.1329
     62 H24         3.7284    5.4000    5.9955 H         1 <0>         0.1349
     63 H25         2.4490    4.0177    4.4125 H         1 <0>         0.1307
     64 H26         6.7692    5.6948    6.1355 H         1 <0>         0.0848
     65 H27         8.2920    3.5604    7.6983 H         1 <0>         0.0736
     66 H28         7.3921    3.2952    6.1856 H         1 <0>         0.0601
     67 H29         9.8137    3.5894    5.7407 H         1 <0>         0.0633
     68 H30         8.8668    4.9154    5.0242 H         1 <0>         0.0604
     69 H31        10.3237    5.0146    7.7046 H         1 <0>         0.0644
     70 H32        10.8712    5.7854    6.1965 H         1 <0>         0.0642
     71 H33         9.7008    7.4142    7.6545 H         1 <0>         0.0701
     72 H34         8.8008    7.1490    6.1419 H         1 <0>         0.0635
     73 H35         7.2792    7.1200    8.0995 H         1 <0>         0.0731
     74 H36         8.2260    5.7940    8.8159 H         1 <0>         0.0724
     75 H37         9.6680   -6.6708    0.9316 H         1 <0>         0.4246
@<TRIPOS>BOND
     1    1    2 1
     2    1   39 1
     3    1   40 1
     4    1   41 1
     5    2    3 1
     6    3    8 ar
     7    3    4 ar
     8    4    5 ar
     9    4   42 1
    10    5   22 ar
    11    5    6 ar
    12    6    7 ar
    13    6   19 ar
    14    7    8 ar
    15    7   43 1
    16    8    9 1
    17    9   10 1
    18   10   11 1
    19   10   44 1
    20   10   45 1
    21   11   12 1
    22   11   46 1
    23   11   47 1
    24   12   13 1
    25   12   48 1
    26   12   49 1
    27   13   18 1
    28   13   14 1
    29   13   75 1
    30   14   15 1
    31   14   50 1
    32   14   51 1
    33   15   16 1
    34   15   52 1
    35   15   53 1
    36   16   17 1
    37   17   18 1
    38   17   54 1
    39   17   55 1
    40   18   56 1
    41   18   57 1
    42   19   20 ar
    43   20   21 ar
    44   20   58 1
    45   21   22 ar
    46   21   37 1
    47   22   23 1
    48   23   24 1
    49   23   59 1
    50   24   29 ar
    51   24   25 ar
    52   25   26 ar
    53   25   60 1
    54   26   27 ar
    55   26   61 1
    56   27   28 ar
    57   27   30 1
    58   28   29 ar
    59   28   62 1
    60   29   63 1
    61   30   31 1
    62   31   36 1
    63   31   32 1
    64   31   64 1
    65   32   33 1
    66   32   65 1
    67   32   66 1
    68   33   34 1
    69   33   67 1
    70   33   68 1
    71   34   35 1
    72   34   69 1
    73   34   70 1
    74   35   36 1
    75   35   71 1
    76   35   72 1
    77   36   73 1
    78   36   74 1
    79   37   38 3
@<TRIPOS>MOLECULE
CHEMBL202356
   71    75     0     0     0
SMALL
USER_CHARGES

@<TRIPOS>ATOM
      1 C1         -0.9977    1.7619    0.3500 C.3       1 <0>        -0.0870
      2 C2         -0.9457    0.2605    0.2312 C.2       1 <0>        -0.1079
      3 C3         -1.3570   -0.5023   -0.8665 C.2       1 <0>         0.1065
      4 C4         -1.1412   -1.8145   -0.5678 C.2       1 <0>         0.0540
      5 N1         -0.6085   -1.9026    0.6796 N.pl3     1 <0>        -0.2486
      6 C5         -0.4757   -0.6267    1.1864 C.2       1 <0>        -0.0410
      7 C6          0.0644   -0.4432    2.4774 C.2       1 <0>         0.3415
      8 C7          0.4547   -1.5733    3.2075 C.2       1 <0>        -0.1542
      9 C8          0.2980   -2.8570    2.6351 C.2       1 <0>         0.1798
     10 N2         -0.2096   -3.0048    1.4460 N.2       1 <0>        -0.2626
     11 C9          1.0075   -1.4299    4.5207 C.1       1 <0>         0.2624
     12 N3          1.4461   -1.3162    5.5624 N.1       1 <0>        -0.4039
     13 N4          0.2055    0.8238    3.0095 N.pl3     1 <0>        -0.6862
     14 C10         1.0873    1.7361    2.4197 C.ar      1 <0>         0.1965
     15 C11         1.8914    1.3389    1.3591 C.ar      1 <0>        -0.1515
     16 C12         2.7613    2.2397    0.7776 C.ar      1 <0>        -0.0766
     17 C13         2.8325    3.5414    1.2526 C.ar      1 <0>         0.0496
     18 C14         2.0296    3.9390    2.3121 C.ar      1 <0>        -0.0944
     19 C15         1.1550    3.0410    2.8909 C.ar      1 <0>        -0.1544
     20 O1          3.6897    4.4277    0.6799 O.3       1 <0>        -0.2434
     21 C16         4.7541    4.8509    1.4125 C.ar      1 <0>         0.0911
     22 C17         5.0177    4.2807    2.6480 C.ar      1 <0>        -0.1577
     23 C18         6.1005    4.7119    3.3912 C.ar      1 <0>        -0.1189
     24 C19         6.9225    5.7117    2.9051 C.ar      1 <0>        -0.1108
     25 C20         6.6653    6.2848    1.6736 C.ar      1 <0>        -0.1754
     26 C21         5.5847    5.8537    0.9210 C.ar      1 <0>         0.1047
     27 O2          5.3334    6.4128   -0.2929 O.3       1 <0>        -0.3069
     28 C22         6.2279    7.4365   -0.7335 C.3       1 <0>         0.0257
     29 N5         -1.8973   -0.0039   -2.0654 N.am      1 <0>        -0.6550
     30 C23        -2.2542   -0.8541   -3.0484 C.2       1 <0>         0.7083
     31 O3         -2.1091   -2.0521   -2.8986 O.2       1 <0>        -0.5715
     32 N6         -2.7720   -0.3765   -4.1974 N.am      1 <0>        -0.7397
     33 C24        -3.1599   -1.3007   -5.2659 C.3       1 <0>         0.1404
     34 C25        -3.7144   -0.5068   -6.4505 C.3       1 <0>         0.0438
     35 N7         -4.1034   -1.4334   -7.5219 N.3       1 <0>        -0.5329
     36 C26        -2.9269   -2.1123   -8.0843 C.3       1 <0>         0.0113
     37 C27        -3.3822   -3.1095   -9.1531 C.3       1 <0>         0.0624
     38 O4         -4.1374   -2.4185  -10.1518 O.3       1 <0>        -0.3849
     39 C28        -5.2909   -1.7464   -9.6389 C.3       1 <0>         0.0625
     40 C29        -4.8550   -0.7354   -8.5751 C.3       1 <0>         0.0187
     41 H1         -0.0558    2.1866    0.0027 H         1 <0>         0.0759
     42 H2         -1.8161    2.1464   -0.2586 H         1 <0>         0.0640
     43 H3         -1.1586    2.0385    1.3920 H         1 <0>         0.0710
     44 H4         -1.3584   -2.6495   -1.2174 H         1 <0>         0.2081
     45 H5          0.5985   -3.7293    3.1966 H         1 <0>         0.2035
     46 H6         -0.3068    1.0810    3.7921 H         1 <0>         0.4224
     47 H7          1.8363    0.3256    0.9895 H         1 <0>         0.1295
     48 H8          3.3868    1.9309   -0.0468 H         1 <0>         0.1355
     49 H9          2.0856    4.9524    2.6813 H         1 <0>         0.1344
     50 H10         0.5267    3.3519    3.7124 H         1 <0>         0.1338
     51 H11         4.3770    3.4998    3.0301 H         1 <0>         0.1355
     52 H12         6.3046    4.2670    4.3539 H         1 <0>         0.1281
     53 H13         7.7673    6.0460    3.4891 H         1 <0>         0.1286
     54 H14         7.3089    7.0658    1.2965 H         1 <0>         0.1366
     55 H15         7.2379    7.0322   -0.8007 H         1 <0>         0.0556
     56 H16         5.9143    7.7958   -1.7136 H         1 <0>         0.1017
     57 H17         6.2136    8.2622   -0.0221 H         1 <0>         0.0555
     58 H18        -2.0131    0.9517   -2.1849 H         1 <0>         0.4113
     59 H19        -2.8878    0.5791   -4.3169 H         1 <0>         0.3986
     60 H20        -2.2885   -1.8713   -5.5870 H         1 <0>         0.0706
     61 H21        -3.9251   -1.9832   -4.8960 H         1 <0>         0.0805
     62 H22        -4.5858    0.0639   -6.1295 H         1 <0>         0.0846
     63 H23        -2.9493    0.1758   -6.8205 H         1 <0>         0.0439
     64 H24        -2.2617   -1.3752   -8.5341 H         1 <0>         0.0460
     65 H25        -2.3998   -2.6435   -7.2918 H         1 <0>         0.0918
     66 H26        -2.5098   -3.5738   -9.6128 H         1 <0>         0.1004
     67 H27        -4.0040   -3.8775   -8.6930 H         1 <0>         0.0624
     68 H28        -5.7990   -1.2249  -10.4501 H         1 <0>         0.1001
     69 H29        -5.9683   -2.4747   -9.1930 H         1 <0>         0.0619
     70 H30        -5.7353   -0.2616   -8.1409 H         1 <0>         0.0887
     71 H31        -4.2206    0.0237   -9.0327 H         1 <0>         0.0455
@<TRIPOS>BOND
     1    1    2 1
     2    1   41 1
     3    1   42 1
     4    1   43 1
     5    2    6 2
     6    2    3 1
     7    3    4 2
     8    3   29 1
     9    4    5 1
    10    4   44 1
    11    5   10 1
    12    5    6 1
    13    6    7 1
    14    7    8 2
    15    7   13 1
    16    8    9 1
    17    8   11 1
    18    9   10 2
    19    9   45 1
    20   11   12 3
    21   13   14 1
    22   13   46 1
    23   14   19 ar
    24   14   15 ar
    25   15   16 ar
    26   15   47 1
    27   16   17 ar
    28   16   48 1
    29   17   18 ar
    30   17   20 1
    31   18   19 ar
    32   18   49 1
    33   19   50 1
    34   20   21 1
    35   21   26 ar
    36   21   22 ar
    37   22   23 ar
    38   22   51 1
    39   23   24 ar
    40   23   52 1
    41   24   25 ar
    42   24   53 1
    43   25   26 ar
    44   25   54 1
    45   26   27 1
    46   27   28 1
    47   28   55 1
    48   28   56 1
    49   28   57 1
    50   29   30 am
    51   29   58 1
    52   30   31 2
    53   30   32 am
    54   32   33 1
    55   32   59 1
    56   33   34 1
    57   33   60 1
    58   33   61 1
    59   34   35 1
    60   34   62 1
    61   34   63 1
    62   35   40 1
    63   35   36 1
    64   36   37 1
    65   36   64 1
    66   36   65 1
    67   37   38 1
    68   37   66 1
    69   37   67 1
    70   38   39 1
    71   39   40 1
    72   39   68 1
    73   39   69 1
    74   40   70 1
    75   40   71 1
@<TRIPOS>MOLECULE
CHEMBL202356__1
   72    76     0     0     0
SMALL
USER_CHARGES

@<TRIPOS>ATOM
      1 C1         -0.9977    1.7619    0.3500 C.3       1 <0>        -0.0890
      2 C2         -0.9457    0.2605    0.2312 C.2       1 <0>        -0.1035
      3 C3         -1.3570   -0.5023   -0.8665 C.2       1 <0>         0.0919
      4 C4         -1.1412   -1.8145   -0.5678 C.2       1 <0>         0.0524
      5 N1         -0.6085   -1.9026    0.6796 N.pl3     1 <0>        -0.2474
      6 C5         -0.4757   -0.6267    1.1864 C.2       1 <0>        -0.0346
      7 C6          0.0644   -0.4432    2.4774 C.2       1 <0>         0.3397
      8 C7          0.4547   -1.5733    3.2075 C.2       1 <0>        -0.1445
      9 C8          0.2980   -2.8570    2.6351 C.2       1 <0>         0.1858
     10 N2         -0.2096   -3.0048    1.4460 N.2       1 <0>        -0.2648
     11 C9          1.0075   -1.4299    4.5207 C.1       1 <0>         0.2554
     12 N3          1.4461   -1.3162    5.5624 N.1       1 <0>        -0.3923
     13 N4          0.2055    0.8238    3.0095 N.pl3     1 <0>        -0.6862
     14 C10         1.0873    1.7361    2.4197 C.ar      1 <0>         0.1930
     15 C11         1.8914    1.3389    1.3591 C.ar      1 <0>        -0.1527
     16 C12         2.7613    2.2397    0.7776 C.ar      1 <0>        -0.0784
     17 C13         2.8325    3.5414    1.2526 C.ar      1 <0>         0.0532
     18 C14         2.0296    3.9390    2.3121 C.ar      1 <0>        -0.0940
     19 C15         1.1550    3.0410    2.8909 C.ar      1 <0>        -0.1522
     20 O1          3.6897    4.4277    0.6799 O.3       1 <0>        -0.2447
     21 C16         4.7541    4.8509    1.4125 C.ar      1 <0>         0.0883
     22 C17         5.0177    4.2807    2.6480 C.ar      1 <0>        -0.1575
     23 C18         6.1005    4.7119    3.3912 C.ar      1 <0>        -0.1185
     24 C19         6.9225    5.7117    2.9051 C.ar      1 <0>        -0.1082
     25 C20         6.6653    6.2848    1.6736 C.ar      1 <0>        -0.1745
     26 C21         5.5847    5.8537    0.9210 C.ar      1 <0>         0.1055
     27 O2          5.3334    6.4128   -0.2929 O.3       1 <0>        -0.3082
     28 C22         6.2279    7.4365   -0.7335 C.3       1 <0>         0.0252
     29 N5         -1.8973   -0.0039   -2.0654 N.am      1 <0>        -0.6448
     30 C23        -2.2542   -0.8541   -3.0484 C.2       1 <0>         0.7117
     31 O3         -2.1091   -2.0521   -2.8986 O.2       1 <0>        -0.5652
     32 N6         -2.7720   -0.3765   -4.1974 N.am      1 <0>        -0.7433
     33 C24        -3.1599   -1.3007   -5.2659 C.3       1 <0>         0.1164
     34 C25        -3.7144   -0.5068   -6.4505 C.3       1 <0>        -0.0223
     35 N7         -4.1034   -1.4334   -7.5219 N.4       1 <0>        -0.3813
     36 C26        -2.9085   -2.1156   -8.0376 C.3       1 <0>        -0.0517
     37 C27        -3.3164   -3.0806   -9.1536 C.3       1 <0>         0.0363
     38 O4         -3.9911   -2.3525  -10.1833 O.3       1 <0>        -0.3558
     39 C28        -5.1499   -1.6505   -9.7248 C.3       1 <0>         0.0355
     40 C29        -4.7453   -0.6828   -8.6099 C.3       1 <0>        -0.0424
     41 H1         -0.0558    2.1866    0.0027 H         1 <0>         0.0779
     42 H2         -1.8161    2.1464   -0.2586 H         1 <0>         0.0627
     43 H3         -1.1586    2.0385    1.3920 H         1 <0>         0.0739
     44 H4         -1.3584   -2.6495   -1.2174 H         1 <0>         0.2048
     45 H5          0.5985   -3.7293    3.1966 H         1 <0>         0.2067
     46 H6         -0.3068    1.0810    3.7921 H         1 <0>         0.4237
     47 H7          1.8363    0.3256    0.9895 H         1 <0>         0.1279
     48 H8          3.3868    1.9309   -0.0468 H         1 <0>         0.1352
     49 H9          2.0856    4.9524    2.6813 H         1 <0>         0.1359
     50 H10         0.5267    3.3519    3.7124 H         1 <0>         0.1348
     51 H11         4.3770    3.4998    3.0301 H         1 <0>         0.1347
     52 H12         6.3046    4.2670    4.3539 H         1 <0>         0.1291
     53 H13         7.7673    6.0460    3.4891 H         1 <0>         0.1301
     54 H14         7.3089    7.0658    1.2965 H         1 <0>         0.1377
     55 H15         5.9143    7.7958   -1.7136 H         1 <0>         0.1017
     56 H16         6.2136    8.2622   -0.0221 H         1 <0>         0.0565
     57 H17         7.2379    7.0322   -0.8007 H         1 <0>         0.0563
     58 H18        -2.0131    0.9517   -2.1849 H         1 <0>         0.4140
     59 H19        -2.8878    0.5791   -4.3169 H         1 <0>         0.4062
     60 H20        -2.2885   -1.8713   -5.5870 H         1 <0>         0.0913
     61 H21        -3.9251   -1.9832   -4.8960 H         1 <0>         0.0918
     62 H22        -4.5858    0.0639   -6.1295 H         1 <0>         0.1413
     63 H23        -2.9493    0.1758   -6.8205 H         1 <0>         0.1395
     64 H24        -2.2103   -1.3775   -8.4324 H         1 <0>         0.1421
     65 H25        -2.4315   -2.6728   -7.2313 H         1 <0>         0.1463
     66 H26        -2.4269   -3.5560   -9.5669 H         1 <0>         0.1438
     67 H27        -3.9831   -3.8428   -8.7501 H         1 <0>         0.0833
     68 H28        -5.5874   -1.0909  -10.5515 H         1 <0>         0.1435
     69 H29        -5.8793   -2.3637   -9.3408 H         1 <0>         0.0827
     70 H30        -5.6320   -0.1764   -8.2284 H         1 <0>         0.1446
     71 H31        -4.0465    0.0548   -9.0044 H         1 <0>         0.1409
     72 H32        -4.7501   -2.1168   -7.1574 H         1 <0>         0.4264
@<TRIPOS>BOND
     1    1    2 1
     2    1   41 1
     3    1   42 1
     4    1   43 1
     5    2    6 2
     6    2    3 1
     7    3    4 2
     8    3   29 1
     9    4    5 1
    10    4   44 1
    11    5   10 1
    12    5    6 1
    13    6    7 1
    14    7    8 2
    15    7   13 1
    16    8    9 1
    17    8   11 1
    18    9   10 2
    19    9   45 1
    20   11   12 3
    21   13   14 1
    22   13   46 1
    23   14   19 ar
    24   14   15 ar
    25   15   16 ar
    26   15   47 1
    27   16   17 ar
    28   16   48 1
    29   17   18 ar
    30   17   20 1
    31   18   19 ar
    32   18   49 1
    33   19   50 1
    34   20   21 1
    35   21   26 ar
    36   21   22 ar
    37   22   23 ar
    38   22   51 1
    39   23   24 ar
    40   23   52 1
    41   24   25 ar
    42   24   53 1
    43   25   26 ar
    44   25   54 1
    45   26   27 1
    46   27   28 1
    47   28   55 1
    48   28   56 1
    49   28   57 1
    50   29   30 am
    51   29   58 1
    52   30   31 2
    53   30   32 am
    54   32   33 1
    55   32   59 1
    56   33   34 1
    57   33   60 1
    58   33   61 1
    59   34   35 1
    60   34   62 1
    61   34   63 1
    62   35   40 1
    63   35   36 1
    64   35   72 1
    65   36   37 1
    66   36   64 1
    67   36   65 1
    68   37   38 1
    69   37   66 1
    70   37   67 1
    71   38   39 1
    72   39   40 1
    73   39   68 1
    74   39   69 1
    75   40   70 1
    76   40   71 1
@<TRIPOS>MOLECULE
CHEMBL35988
   39    40     0     0     0
SMALL
USER_CHARGES

@<TRIPOS>ATOM
      1 C1         -0.0570    1.3793    0.0444 C.3       1 <0>        -0.1814
      2 C2         -0.0525   -0.1453   -0.0836 C.3       1 <0>         0.1406
      3 C3          0.6867   -0.5422   -1.3354 C.ar      1 <0>        -0.0797
      4 C4          0.0534   -0.4695   -2.5637 C.ar      1 <0>        -0.0876
      5 C5          0.7251   -0.8320   -3.7175 C.ar      1 <0>        -0.1179
      6 C6          2.0322   -1.2687   -3.6500 C.ar      1 <0>        -0.1100
      7 C7          2.6766   -1.3439   -2.4148 C.ar      1 <0>        -0.0240
      8 C8          1.9951   -0.9717   -1.2552 C.ar      1 <0>        -0.0912
      9 C9          4.0787   -1.8115   -2.3352 C.2       1 <0>        -0.1175
     10 C10         5.0926   -1.0674   -2.9215 C.2       1 <0>         0.2142
     11 N1          4.7955    0.1021   -3.5751 N.pl3     1 <0>        -0.8263
     12 S1          6.7617   -1.6241   -2.8267 S.3       1 <0>         0.0172
     13 C11         7.5590   -0.4126   -1.8261 C.ar      1 <0>        -0.1920
     14 C12         6.8161    0.5966   -1.2310 C.ar      1 <0>        -0.0733
     15 C13         7.4437    1.5456   -0.4460 C.ar      1 <0>        -0.1610
     16 C14         8.8118    1.4932   -0.2515 C.ar      1 <0>        -0.0635
     17 C15         9.5602    0.4911   -0.8405 C.ar      1 <0>        -0.1837
     18 C16         8.9384   -0.4688   -1.6251 C.ar      1 <0>         0.2482
     19 N2          9.6928   -1.4872   -2.2175 N.pl3     1 <0>        -0.8699
     20 C17         4.3888   -3.0319   -1.6532 C.1       1 <0>         0.2699
     21 N3          4.6348   -4.0000   -1.1122 N.1       1 <0>        -0.4244
     22 O1         -1.3981   -0.6213   -0.1539 O.3       1 <0>        -0.5627
     23 H1          0.9694    1.7424    0.0979 H         1 <0>         0.0680
     24 H2         -0.5518    1.8153   -0.8235 H         1 <0>         0.0662
     25 H3         -0.5916    1.6664    0.9498 H         1 <0>         0.0629
     26 H4          0.4423   -0.5813    0.7842 H         1 <0>         0.0647
     27 H5         -0.9698   -0.1286   -2.6217 H         1 <0>         0.1276
     28 H6          0.2251   -0.7733   -4.6730 H         1 <0>         0.1273
     29 H7          2.5553   -1.5521   -4.5514 H         1 <0>         0.1265
     30 H8          2.4896   -1.0241   -0.2965 H         1 <0>         0.1245
     31 H9          3.8710    0.3735   -3.6874 H         1 <0>         0.4073
     32 H10         5.5099    0.6574   -3.9246 H         1 <0>         0.4096
     33 H11         5.7476    0.6410   -1.3813 H         1 <0>         0.1251
     34 H12         6.8638    2.3306    0.0165 H         1 <0>         0.1248
     35 H13         9.2972    2.2376    0.3622 H         1 <0>         0.1273
     36 H14        10.6285    0.4533   -0.6864 H         1 <0>         0.1288
     37 H15         9.2569   -2.1557   -2.7689 H         1 <0>         0.3994
     38 H16        10.6518   -1.5249   -2.0768 H         1 <0>         0.4040
     39 H17        -1.9339   -0.4016    0.6205 H         1 <0>         0.3819
@<TRIPOS>BOND
     1    1    2 1
     2    1   23 1
     3    1   24 1
     4    1   25 1
     5    2    3 1
     6    2   22 1
     7    2   26 1
     8    3    8 ar
     9    3    4 ar
    10    4    5 ar
    11    4   27 1
    12    5    6 ar
    13    5   28 1
    14    6    7 ar
    15    6   29 1
    16    7    8 ar
    17    7    9 1
    18    8   30 1
    19    9   10 2
    20    9   20 1
    21   10   11 1
    22   10   12 1
    23   11   31 1
    24   11   32 1
    25   12   13 1
    26   13   18 ar
    27   13   14 ar
    28   14   15 ar
    29   14   33 1
    30   15   16 ar
    31   15   34 1
    32   16   17 ar
    33   16   35 1
    34   17   18 ar
    35   17   36 1
    36   18   19 1
    37   19   37 1
    38   19   38 1
    39   20   21 3
    40   22   39 1
@<TRIPOS>MOLECULE
CHEMBL35988__1
   39    40     0     0     0
SMALL
USER_CHARGES

@<TRIPOS>ATOM
      1 C1          0.2320    1.7104    0.2374 C.3       1 <0>        -0.1811
      2 C2          0.2153    0.1806    0.2573 C.3       1 <0>         0.1420
      3 C3          0.8396   -0.3451   -1.0095 C.ar      1 <0>        -0.0854
      4 C4          0.1017   -0.3808   -2.1797 C.ar      1 <0>        -0.0852
      5 C5          0.6674   -0.8619   -3.3468 C.ar      1 <0>        -0.1213
      6 C6          1.9726   -1.3095   -3.3508 C.ar      1 <0>        -0.0800
      7 C7          2.7221   -1.2758   -2.1745 C.ar      1 <0>        -0.0187
      8 C8          2.1472   -0.7844   -1.0016 C.ar      1 <0>        -0.0928
      9 C9          4.1228   -1.7545   -2.1717 C.2       1 <0>        -0.1178
     10 C10         5.0863   -1.0850   -2.9126 C.2       1 <0>         0.2086
     11 N1          6.3849   -1.5288   -2.9100 N.pl3     1 <0>        -0.8322
     12 S1          4.6425    0.3350   -3.8567 S.3       1 <0>         0.0439
     13 C11         4.8813   -0.1721   -5.5271 C.ar      1 <0>        -0.1946
     14 C12         5.2147   -1.4878   -5.8140 C.ar      1 <0>        -0.0757
     15 C13         5.4010   -1.8833   -7.1252 C.ar      1 <0>        -0.1601
     16 C14         5.2566   -0.9709   -8.1543 C.ar      1 <0>        -0.0637
     17 C15         4.9245    0.3423   -7.8780 C.ar      1 <0>        -0.1831
     18 C16         4.7299    0.7470   -6.5657 C.ar      1 <0>         0.2489
     19 N2          4.3881    2.0741   -6.2841 N.pl3     1 <0>        -0.8699
     20 C17         4.4835   -2.9085   -1.4044 C.1       1 <0>         0.2623
     21 N3          4.7697   -3.8240   -0.7958 N.1       1 <0>        -0.4309
     22 O1         -1.1342   -0.2799    0.3500 O.3       1 <0>        -0.5629
     23 H1          1.2614    2.0617    0.1667 H         1 <0>         0.0684
     24 H2         -0.3341    2.0687   -0.6224 H         1 <0>         0.0663
     25 H3         -0.2196    2.0906    1.1537 H         1 <0>         0.0610
     26 H4          0.7814   -0.1777    1.1172 H         1 <0>         0.0625
     27 H5         -0.9204   -0.0318   -2.1816 H         1 <0>         0.1252
     28 H6          0.0862   -0.8875   -4.2567 H         1 <0>         0.1245
     29 H7          2.4130   -1.6856   -4.2625 H         1 <0>         0.1212
     30 H8          2.7234   -0.7522   -0.0887 H         1 <0>         0.1207
     31 H9          6.6447   -2.2649   -2.3342 H         1 <0>         0.4033
     32 H10         7.0429   -1.1064   -3.4839 H         1 <0>         0.4105
     33 H11         5.3290   -2.2028   -5.0127 H         1 <0>         0.1230
     34 H12         5.6606   -2.9080   -7.3466 H         1 <0>         0.1240
     35 H13         5.4041   -1.2851   -9.1770 H         1 <0>         0.1268
     36 H14         4.8126    1.0522   -8.6842 H         1 <0>         0.1285
     37 H15         4.2559    2.3564   -5.3655 H         1 <0>         0.3994
     38 H16         4.2832    2.7119   -7.0073 H         1 <0>         0.4038
     39 H17        -1.5989    0.0208    1.1430 H         1 <0>         0.3804
@<TRIPOS>BOND
     1    1    2 1
     2    1   23 1
     3    1   24 1
     4    1   25 1
     5    2    3 1
     6    2   22 1
     7    2   26 1
     8    3    8 ar
     9    3    4 ar
    10    4    5 ar
    11    4   27 1
    12    5    6 ar
    13    5   28 1
    14    6    7 ar
    15    6   29 1
    16    7    8 ar
    17    7    9 1
    18    8   30 1
    19    9   10 2
    20    9   20 1
    21   10   11 1
    22   10   12 1
    23   11   31 1
    24   11   32 1
    25   12   13 1
    26   13   18 ar
    27   13   14 ar
    28   14   15 ar
    29   14   33 1
    30   15   16 ar
    31   15   34 1
    32   16   17 ar
    33   16   35 1
    34   17   18 ar
    35   17   36 1
    36   18   19 1
    37   19   37 1
    38   19   38 1
    39   20   21 3
    40   22   39 1
@<TRIPOS>MOLECULE
CHEMBL35988__2
   39    40     0     0     0
SMALL
USER_CHARGES

@<TRIPOS>ATOM
      1 C1         -0.2488    1.6172   -0.1261 C.3       1 <0>        -0.1828
      2 C2         -0.1308    0.0935   -0.0536 C.3       1 <0>         0.1416
      3 C3         -1.5085   -0.5172   -0.0442 C.ar      1 <0>        -0.0797
      4 C4         -2.1632   -0.7623   -1.2384 C.ar      1 <0>        -0.0879
      5 C5         -3.4281   -1.3226   -1.2383 C.ar      1 <0>        -0.1178
      6 C6         -4.0448   -1.6407   -0.0457 C.ar      1 <0>        -0.1107
      7 C7         -3.3899   -1.3965    1.1618 C.ar      1 <0>        -0.0236
      8 C8         -2.1118   -0.8358    1.1546 C.ar      1 <0>        -0.0922
      9 C9         -4.0457   -1.7352    2.4449 C.2       1 <0>        -0.1190
     10 C10        -4.3189   -3.0596    2.7560 C.2       1 <0>         0.2149
     11 N1         -3.9811   -4.0554    1.8741 N.pl3     1 <0>        -0.8258
     12 S1         -5.0996   -3.4629    4.2832 S.3       1 <0>         0.0170
     13 C11        -3.8666   -4.3572    5.1691 C.ar      1 <0>        -0.1921
     14 C12        -2.5864   -4.4785    4.6487 C.ar      1 <0>        -0.0732
     15 C13        -1.6208   -5.1802    5.3456 C.ar      1 <0>        -0.1607
     16 C14        -1.9264   -5.7633    6.5617 C.ar      1 <0>        -0.0635
     17 C15        -3.1995   -5.6477    7.0881 C.ar      1 <0>        -0.1837
     18 C16        -4.1733   -4.9406    6.3986 C.ar      1 <0>         0.2481
     19 N2         -5.4608   -4.8174    6.9321 N.pl3     1 <0>        -0.8701
     20 C17        -4.3982   -0.6962    3.3650 C.1       1 <0>         0.2707
     21 N3         -4.6778    0.1281    4.0950 N.1       1 <0>        -0.4254
     22 O1          0.5936   -0.3827   -1.1896 O.3       1 <0>        -0.5633
     23 H1          0.7477    2.0589   -0.1329 H         1 <0>         0.0632
     24 H2         -0.7768    1.8978   -1.0375 H         1 <0>         0.0664
     25 H3         -0.8013    1.9805    0.7404 H         1 <0>         0.0685
     26 H4          0.3973   -0.1871    0.8578 H         1 <0>         0.0653
     27 H5         -1.6849   -0.5148   -2.1745 H         1 <0>         0.1287
     28 H6         -3.9340   -1.5111   -2.1736 H         1 <0>         0.1272
     29 H7         -5.0326   -2.0774   -0.0469 H         1 <0>         0.1263
     30 H8         -1.5981   -0.6478    2.0859 H         1 <0>         0.1245
     31 H9         -3.6150   -3.8296    1.0047 H         1 <0>         0.4077
     32 H10        -4.1084   -4.9849    2.1202 H         1 <0>         0.4097
     33 H11        -2.3444   -4.0250    3.6989 H         1 <0>         0.1252
     34 H12        -0.6246   -5.2736    4.9390 H         1 <0>         0.1250
     35 H13        -1.1683   -6.3111    7.1018 H         1 <0>         0.1274
     36 H14        -3.4347   -6.1044    8.0381 H         1 <0>         0.1289
     37 H15        -6.1418   -4.3256    6.4469 H         1 <0>         0.3993
     38 H16        -5.6725   -5.2236    7.7871 H         1 <0>         0.4040
     39 H17         1.4912   -0.0300   -1.2599 H         1 <0>         0.3822
@<TRIPOS>BOND
     1    1    2 1
     2    1   23 1
     3    1   24 1
     4    1   25 1
     5    2    3 1
     6    2   22 1
     7    2   26 1
     8    3    8 ar
     9    3    4 ar
    10    4    5 ar
    11    4   27 1
    12    5    6 ar
    13    5   28 1
    14    6    7 ar
    15    6   29 1
    16    7    8 ar
    17    7    9 1
    18    8   30 1
    19    9   10 2
    20    9   20 1
    21   10   11 1
    22   10   12 1
    23   11   31 1
    24   11   32 1
    25   12   13 1
    26   13   18 ar
    27   13   14 ar
    28   14   15 ar
    29   14   33 1
    30   15   16 ar
    31   15   34 1
    32   16   17 ar
    33   16   35 1
    34   17   18 ar
    35   17   36 1
    36   18   19 1
    37   19   37 1
    38   19   38 1
    39   20   21 3
    40   22   39 1
@<TRIPOS>MOLECULE
CHEMBL35988__3
   39    40     0     0     0
SMALL
USER_CHARGES

@<TRIPOS>ATOM
      1 C1          0.2790    1.3845    0.3084 C.3       1 <0>        -0.1823
      2 C2          0.2368   -0.1444    0.2666 C.3       1 <0>         0.1430
      3 C3         -1.1965   -0.6060    0.2073 C.ar      1 <0>        -0.0856
      4 C4         -1.8443   -0.6918   -1.0125 C.ar      1 <0>        -0.0855
      5 C5         -3.1600   -1.1146   -1.0755 C.ar      1 <0>        -0.1213
      6 C6         -3.8348   -1.4536    0.0794 C.ar      1 <0>        -0.0806
      7 C7         -3.1872   -1.3697    1.3123 C.ar      1 <0>        -0.0184
      8 C8         -1.8582   -0.9474    1.3685 C.ar      1 <0>        -0.0936
      9 C9         -3.9051   -1.7317    2.5551 C.2       1 <0>        -0.1189
     10 C10        -4.3214   -3.0395    2.7600 C.2       1 <0>         0.2092
     11 N1         -4.9869   -3.3752    3.9122 N.pl3     1 <0>        -0.8320
     12 S1         -3.9953   -4.2691    1.5408 S.3       1 <0>         0.0450
     13 C11        -5.5933   -4.7160    0.9482 C.ar      1 <0>        -0.1948
     14 C12        -6.7150   -4.0254    1.3834 C.ar      1 <0>        -0.0758
     15 C13        -7.9675   -4.3775    0.9167 C.ar      1 <0>        -0.1604
     16 C14        -8.1073   -5.4178    0.0163 C.ar      1 <0>        -0.0639
     17 C15        -6.9952   -6.1116   -0.4229 C.ar      1 <0>        -0.1831
     18 C16        -5.7338   -5.7617    0.0355 C.ar      1 <0>         0.2492
     19 N2         -4.6063   -6.4587   -0.4120 N.pl3     1 <0>        -0.8697
     20 C17        -4.1701   -0.7324    3.5460 C.1       1 <0>         0.2629
     21 N3         -4.3803    0.0603    4.3320 N.1       1 <0>        -0.4318
     22 O1          0.9350   -0.6086   -0.8906 O.3       1 <0>        -0.5627
     23 H1          1.3157    1.7183    0.3513 H         1 <0>         0.0617
     24 H2         -0.1952    1.7857   -0.5873 H         1 <0>         0.0662
     25 H3         -0.2536    1.7386    1.1911 H         1 <0>         0.0673
     26 H4          0.7110   -0.5456    1.1623 H         1 <0>         0.0636
     27 H5         -1.3206   -0.4273   -1.9193 H         1 <0>         0.1263
     28 H6         -3.6602   -1.1792   -2.0305 H         1 <0>         0.1244
     29 H7         -4.8622   -1.7829    0.0291 H         1 <0>         0.1211
     30 H8         -1.3502   -0.8839    2.3194 H         1 <0>         0.1206
     31 H9         -5.1023   -2.7167    4.6151 H         1 <0>         0.4032
     32 H10        -5.3421   -4.2709    4.0238 H         1 <0>         0.4106
     33 H11        -6.6096   -3.2129    2.0870 H         1 <0>         0.1229
     34 H12        -8.8396   -3.8387    1.2565 H         1 <0>         0.1238
     35 H13        -9.0884   -5.6892   -0.3446 H         1 <0>         0.1267
     36 H14        -7.1081   -6.9235   -1.1261 H         1 <0>         0.1285
     37 H15        -3.7252   -6.2151   -0.0877 H         1 <0>         0.3997
     38 H16        -4.7057   -7.1855   -1.0467 H         1 <0>         0.4039
     39 H17         1.8658   -0.3480   -0.9194 H         1 <0>         0.3806
@<TRIPOS>BOND
     1    1    2 1
     2    1   23 1
     3    1   24 1
     4    1   25 1
     5    2    3 1
     6    2   22 1
     7    2   26 1
     8    3    8 ar
     9    3    4 ar
    10    4    5 ar
    11    4   27 1
    12    5    6 ar
    13    5   28 1
    14    6    7 ar
    15    6   29 1
    16    7    8 ar
    17    7    9 1
    18    8   30 1
    19    9   10 2
    20    9   20 1
    21   10   11 1
    22   10   12 1
    23   11   31 1
    24   11   32 1
    25   12   13 1
    26   13   18 ar
    27   13   14 ar
    28   14   15 ar
    29   14   33 1
    30   15   16 ar
    31   15   34 1
    32   16   17 ar
    33   16   35 1
    34   17   18 ar
    35   17   36 1
    36   18   19 1
    37   19   37 1
    38   19   38 1
    39   20   21 3
    40   22   39 1
@<TRIPOS>MOLECULE
CHEMBL102786
   64    68     0     0     0
SMALL
USER_CHARGES

@<TRIPOS>ATOM
      1 C1          6.0702    2.5181    0.9585 C.3       1 <0>         0.0219
      2 O1          5.9743    1.1079    0.7484 O.3       1 <0>        -0.2969
      3 C2          4.9422    0.4623    1.3543 C.ar      1 <0>         0.1303
      4 C3          4.0563    1.1687    2.1160 C.ar      1 <0>        -0.1613
      5 C4          2.9908    0.5056    2.7422 C.ar      1 <0>        -0.0969
      6 C5          2.8371   -0.8929    2.5827 C.ar      1 <0>         0.1674
      7 C6          3.7609   -1.5968    1.7953 C.ar      1 <0>        -0.1769
      8 C7          4.7943   -0.9214    1.1865 C.ar      1 <0>         0.1600
      9 O2          5.6839   -1.6042    0.4198 O.3       1 <0>        -0.2918
     10 C8          5.4796   -3.0123    0.2872 C.3       1 <0>         0.0547
     11 C9          6.5720   -3.6043   -0.6057 C.3       1 <0>        -0.1160
     12 C10         6.3533   -5.1119   -0.7476 C.3       1 <0>         0.0586
     13 N1          7.4021   -5.6803   -1.6049 N.3       1 <0>        -0.5363
     14 C11         7.2816   -5.1847   -2.9837 C.3       1 <0>         0.0125
     15 C12         8.4262   -5.7535   -3.8265 C.3       1 <0>         0.0623
     16 O3          8.3964   -7.1818   -3.7600 O.3       1 <0>        -0.3853
     17 C13         8.5121   -7.6988   -2.4316 C.3       1 <0>         0.0626
     18 C14         7.3684   -7.1497   -1.5746 C.3       1 <0>         0.0174
     19 N2          1.8199   -1.5329    3.1781 N.ar      1 <0>        -0.4597
     20 C15         0.9426   -0.9041    3.9178 C.ar      1 <0>         0.1792
     21 C16         1.0173    0.4819    4.1300 C.ar      1 <0>        -0.0836
     22 C17         2.0581    1.2124    3.5364 C.ar      1 <0>         0.2565
     23 N3          2.1675    2.5758    3.7209 N.pl3     1 <0>        -0.6971
     24 C18         2.9875    3.0809    4.7362 C.ar      1 <0>         0.2507
     25 C19         3.7856    2.2188    5.4778 C.ar      1 <0>        -0.1865
     26 C20         4.5947    2.7164    6.4795 C.ar      1 <0>         0.0040
     27 C21         4.6115    4.0796    6.7462 C.ar      1 <0>        -0.1825
     28 C22         3.8133    4.9427    6.0041 C.ar      1 <0>         0.0704
     29 C23         3.0075    4.4448    4.9986 C.ar      1 <0>        -0.1821
     30 Cl1         3.8333    6.6463    6.3373 Cl        1 <0>        -0.0404
     31 S1          5.6437    4.7146    8.0252 S.3       1 <0>         0.1326
     32 C24         4.5304    5.0316    9.3536 C.2       1 <0>        -0.0002
     33 N4          3.2472    4.7469    9.4315 N.2       1 <0>        -0.5071
     34 C25         2.5453    5.0530   10.5077 C.2       1 <0>         0.0436
     35 C26         3.2044    5.6690   11.5187 C.2       1 <0>        -0.2368
     36 S2          4.8505    5.7653   10.8341 S.3       1 <0>         0.1586
     37 C27         0.0422    1.1429    4.9442 C.1       1 <0>         0.2506
     38 N5         -0.7313    1.6672    5.5902 N.1       1 <0>        -0.3898
     39 H1          6.1834    2.7200    2.0236 H         1 <0>         0.0600
     40 H2          6.9349    2.9075    0.4210 H         1 <0>         0.1078
     41 H3          5.1656    3.0025    0.5909 H         1 <0>         0.0583
     42 H4          4.1759    2.2353    2.2364 H         1 <0>         0.1482
     43 H5          3.6586   -2.6639    1.6635 H         1 <0>         0.1568
     44 H6          5.5215   -3.4797    1.2710 H         1 <0>         0.0714
     45 H7          4.5037   -3.1972   -0.1617 H         1 <0>         0.0686
     46 H8          6.5302   -3.1369   -1.5895 H         1 <0>         0.0767
     47 H9          7.5480   -3.4194   -0.1568 H         1 <0>         0.0867
     48 H10         6.3951   -5.5794    0.2362 H         1 <0>         0.0818
     49 H11         5.3774   -5.2968   -1.1965 H         1 <0>         0.0404
     50 H12         6.3275   -5.5038   -3.4031 H         1 <0>         0.0446
     51 H13         7.3348   -4.0960   -2.9851 H         1 <0>         0.0904
     52 H14         8.3088   -5.4348   -4.8623 H         1 <0>         0.0993
     53 H15         9.3784   -5.3909   -3.4393 H         1 <0>         0.0612
     54 H16         8.4567   -8.7871   -2.4585 H         1 <0>         0.0997
     55 H17         9.4668   -7.3928   -2.0038 H         1 <0>         0.0612
     56 H18         7.4848   -7.4954   -0.5475 H         1 <0>         0.0883
     57 H19         6.4156   -7.5002   -1.9715 H         1 <0>         0.0448
     58 H20         0.1412   -1.4647    4.3759 H         1 <0>         0.1747
     59 H21         1.6761    3.1839    3.1468 H         1 <0>         0.4214
     60 H22         3.7728    1.1589    5.2708 H         1 <0>         0.1338
     61 H23         5.2144    2.0457    7.0561 H         1 <0>         0.1449
     62 H24         2.3904    5.1154    4.4191 H         1 <0>         0.1418
     63 H25         1.4925    4.8229   10.5786 H         1 <0>         0.1726
     64 H26         2.8362    6.0059   12.4765 H         1 <0>         0.1979
@<TRIPOS>BOND
     1    1    2 1
     2    1   39 1
     3    1   40 1
     4    1   41 1
     5    2    3 1
     6    3    8 ar
     7    3    4 ar
     8    4    5 ar
     9    4   42 1
    10    5   22 ar
    11    5    6 ar
    12    6    7 ar
    13    6   19 ar
    14    7    8 ar
    15    7   43 1
    16    8    9 1
    17    9   10 1
    18   10   11 1
    19   10   44 1
    20   10   45 1
    21   11   12 1
    22   11   46 1
    23   11   47 1
    24   12   13 1
    25   12   48 1
    26   12   49 1
    27   13   18 1
    28   13   14 1
    29   14   15 1
    30   14   50 1
    31   14   51 1
    32   15   16 1
    33   15   52 1
    34   15   53 1
    35   16   17 1
    36   17   18 1
    37   17   54 1
    38   17   55 1
    39   18   56 1
    40   18   57 1
    41   19   20 ar
    42   20   21 ar
    43   20   58 1
    44   21   22 ar
    45   21   37 1
    46   22   23 1
    47   23   24 1
    48   23   59 1
    49   24   29 ar
    50   24   25 ar
    51   25   26 ar
    52   25   60 1
    53   26   27 ar
    54   26   61 1
    55   27   28 ar
    56   27   31 1
    57   28   29 ar
    58   28   30 1
    59   29   62 1
    60   31   32 1
    61   32   36 1
    62   32   33 2
    63   33   34 1
    64   34   35 2
    65   34   63 1
    66   35   36 1
    67   35   64 1
    68   37   38 3
@<TRIPOS>MOLECULE
CHEMBL102786__1
   65    69     0     0     0
SMALL
USER_CHARGES

@<TRIPOS>ATOM
      1 C1          6.0702    2.5181    0.9585 C.3       1 <0>         0.0208
      2 O1          5.9743    1.1079    0.7484 O.3       1 <0>        -0.3012
      3 C2          4.9422    0.4623    1.3543 C.ar      1 <0>         0.1268
      4 C3          4.0563    1.1687    2.1160 C.ar      1 <0>        -0.1523
      5 C4          2.9908    0.5056    2.7422 C.ar      1 <0>        -0.0936
      6 C5          2.8371   -0.8929    2.5827 C.ar      1 <0>         0.1618
      7 C6          3.7609   -1.5968    1.7953 C.ar      1 <0>        -0.1690
      8 C7          4.7943   -0.9214    1.1865 C.ar      1 <0>         0.1497
      9 O2          5.6839   -1.6042    0.4198 O.3       1 <0>        -0.2935
     10 C8          5.4796   -3.0123    0.2872 C.3       1 <0>         0.0564
     11 C9          6.5720   -3.6043   -0.6057 C.3       1 <0>        -0.1506
     12 C10         6.3533   -5.1119   -0.7476 C.3       1 <0>        -0.0061
     13 N1          7.4021   -5.6803   -1.6049 N.4       1 <0>        -0.3843
     14 C11         7.2700   -5.1396   -2.9647 C.3       1 <0>        -0.0502
     15 C12         8.3639   -5.7331   -3.8558 C.3       1 <0>         0.0361
     16 O3          8.2586   -7.1595   -3.8451 O.3       1 <0>        -0.3563
     17 C13         8.3574   -7.7324   -2.5382 C.3       1 <0>         0.0354
     18 C14         7.2634   -7.1426   -1.6447 C.3       1 <0>        -0.0433
     19 N2          1.8199   -1.5329    3.1781 N.ar      1 <0>        -0.4625
     20 C15         0.9426   -0.9041    3.9178 C.ar      1 <0>         0.1844
     21 C16         1.0173    0.4819    4.1300 C.ar      1 <0>        -0.0737
     22 C17         2.0581    1.2124    3.5364 C.ar      1 <0>         0.2598
     23 N3          2.1675    2.5758    3.7209 N.pl3     1 <0>        -0.6998
     24 C18         2.9875    3.0809    4.7362 C.ar      1 <0>         0.2465
     25 C19         3.7856    2.2188    5.4778 C.ar      1 <0>        -0.1881
     26 C20         4.5947    2.7164    6.4795 C.ar      1 <0>         0.0030
     27 C21         4.6115    4.0796    6.7462 C.ar      1 <0>        -0.1790
     28 C22         3.8133    4.9427    6.0041 C.ar      1 <0>         0.0698
     29 C23         3.0075    4.4448    4.9986 C.ar      1 <0>        -0.1798
     30 Cl1         3.8333    6.6463    6.3373 Cl        1 <0>        -0.0358
     31 S1          5.6437    4.7146    8.0252 S.3       1 <0>         0.1317
     32 C24         4.5304    5.0316    9.3536 C.2       1 <0>        -0.0047
     33 N4          3.2472    4.7469    9.4315 N.2       1 <0>        -0.5067
     34 C25         2.5453    5.0530   10.5077 C.2       1 <0>         0.0417
     35 C26         3.2044    5.6690   11.5187 C.2       1 <0>        -0.2326
     36 S2          4.8505    5.7653   10.8341 S.3       1 <0>         0.1642
     37 C27         0.0422    1.1429    4.9442 C.1       1 <0>         0.2428
     38 N5         -0.7313    1.6672    5.5902 N.1       1 <0>        -0.3772
     39 H1          6.1834    2.7200    2.0236 H         1 <0>         0.0623
     40 H2          6.9349    2.9075    0.4210 H         1 <0>         0.1096
     41 H3          5.1656    3.0025    0.5909 H         1 <0>         0.0607
     42 H4          4.1759    2.2353    2.2364 H         1 <0>         0.1511
     43 H5          3.6586   -2.6639    1.6635 H         1 <0>         0.1541
     44 H6          5.5215   -3.4797    1.2710 H         1 <0>         0.0794
     45 H7          4.5037   -3.1972   -0.1617 H         1 <0>         0.0789
     46 H8          6.5302   -3.1369   -1.5895 H         1 <0>         0.1006
     47 H9          7.5480   -3.4194   -0.1568 H         1 <0>         0.1016
     48 H10         6.3951   -5.5794    0.2362 H         1 <0>         0.1385
     49 H11         5.3774   -5.2968   -1.1965 H         1 <0>         0.1362
     50 H12         6.2914   -5.4019   -3.3668 H         1 <0>         0.1408
     51 H13         7.3728   -4.0548   -2.9363 H         1 <0>         0.1447
     52 H14         8.2418   -5.3667   -4.8751 H         1 <0>         0.1427
     53 H15         9.3423   -5.4375   -3.4769 H         1 <0>         0.0820
     54 H16         8.2304   -8.8130   -2.6040 H         1 <0>         0.1430
     55 H17         9.3355   -7.5052   -2.1142 H         1 <0>         0.0820
     56 H18         7.3614   -7.5447   -0.6364 H         1 <0>         0.1442
     57 H19         6.2848   -7.4041   -2.0473 H         1 <0>         0.1403
     58 H20         0.1412   -1.4647    4.3759 H         1 <0>         0.1778
     59 H21         1.6761    3.1839    3.1468 H         1 <0>         0.4227
     60 H22         3.7728    1.1589    5.2708 H         1 <0>         0.1315
     61 H23         5.2144    2.0457    7.0561 H         1 <0>         0.1448
     62 H24         2.3904    5.1154    4.4191 H         1 <0>         0.1427
     63 H25         1.4925    4.8229   10.5786 H         1 <0>         0.1734
     64 H26         2.8362    6.0059   12.4765 H         1 <0>         0.1992
     65 H27         8.3084   -5.4383   -1.2331 H         1 <0>         0.4247
@<TRIPOS>BOND
     1    1    2 1
     2    1   39 1
     3    1   40 1
     4    1   41 1
     5    2    3 1
     6    3    8 ar
     7    3    4 ar
     8    4    5 ar
     9    4   42 1
    10    5   22 ar
    11    5    6 ar
    12    6    7 ar
    13    6   19 ar
    14    7    8 ar
    15    7   43 1
    16    8    9 1
    17    9   10 1
    18   10   11 1
    19   10   44 1
    20   10   45 1
    21   11   12 1
    22   11   46 1
    23   11   47 1
    24   12   13 1
    25   12   48 1
    26   12   49 1
    27   13   18 1
    28   13   14 1
    29   13   65 1
    30   14   15 1
    31   14   50 1
    32   14   51 1
    33   15   16 1
    34   15   52 1
    35   15   53 1
    36   16   17 1
    37   17   18 1
    38   17   54 1
    39   17   55 1
    40   18   56 1
    41   18   57 1
    42   19   20 ar
    43   20   21 ar
    44   20   58 1
    45   21   22 ar
    46   21   37 1
    47   22   23 1
    48   23   24 1
    49   23   59 1
    50   24   29 ar
    51   24   25 ar
    52   25   26 ar
    53   25   60 1
    54   26   27 ar
    55   26   61 1
    56   27   28 ar
    57   27   31 1
    58   28   29 ar
    59   28   30 1
    60   29   62 1
    61   31   32 1
    62   32   36 1
    63   32   33 2
    64   33   34 1
    65   34   35 2
    66   34   63 1
    67   35   36 1
    68   35   64 1
    69   37   38 3
@<TRIPOS>MOLECULE
CHEMBL401930
   60    64     0     0     0
SMALL
USER_CHARGES

@<TRIPOS>ATOM
      1 C1          0.1861    0.9402    0.2320 C.3       1 <0>        -0.1099
      2 C2          0.1885   -0.5661    0.2760 C.ar      1 <0>         0.0105
      3 C3          0.2130   -1.2834   -0.8862 C.ar      1 <0>        -0.1934
      4 C4          0.2155   -2.6762   -0.8597 C.ar      1 <0>         0.2379
      5 C5          0.1931   -3.3524    0.3500 C.ar      1 <0>        -0.2114
      6 C6          0.1681   -2.6355    1.5366 C.ar      1 <0>         0.1009
      7 C7          0.1715   -1.2297    1.5066 C.ar      1 <0>         0.0140
      8 N1          0.1514   -0.8003    2.7941 N.2       1 <0>        -0.5153
      9 C8          0.1414   -1.8338    3.6037 C.2       1 <0>         0.3723
     10 N2          0.1421   -2.9944    2.8723 N.pl3     1 <0>        -0.5878
     11 H1          0.1365   -3.8977    3.2257 H         1 <0>         0.4313
     12 C9          0.1201   -1.7586    5.0739 C.2       1 <0>        -0.2944
     13 C10        -0.0136   -0.5236    5.7239 C.2       1 <0>         0.3534
     14 C11        -0.0298   -0.4970    7.1313 C.2       1 <0>        -0.2716
     15 C12         0.0823   -1.6480    7.8290 C.2       1 <0>         0.1820
     16 N3          0.2123   -2.8452    7.1992 N.am      1 <0>        -0.6203
     17 H2          0.2910   -3.6547    7.7279 H         1 <0>         0.4189
     18 C13         0.2280   -2.9303    5.8560 C.2       1 <0>         0.5553
     19 O1          0.3405   -4.0175    5.3144 O.2       1 <0>        -0.5664
     20 N4         -0.1266    0.6435    4.9980 N.pl3     1 <0>        -0.6861
     21 C14        -0.1433    1.9361    5.6873 C.3       1 <0>         0.0780
     22 C15        -0.2761    3.0609    4.6587 C.3       1 <0>         0.1422
     23 H3          0.5199    2.9729    3.9193 H         1 <0>         0.1199
     24 C16        -0.1701    4.3933    5.3548 C.ar      1 <0>        -0.1060
     25 C17        -1.2638    4.9136    6.0217 C.ar      1 <0>        -0.1059
     26 C18        -1.1674    6.1356    6.6604 C.ar      1 <0>        -0.1011
     27 C19         0.0226    6.8384    6.6324 C.ar      1 <0>        -0.1059
     28 C20         1.1172    6.3184    5.9653 C.ar      1 <0>        -0.0315
     29 C21         1.0218    5.0921    5.3312 C.ar      1 <0>        -0.0968
     30 Cl1         2.6119    7.2005    5.9296 Cl        1 <0>        -0.0631
     31 O2         -1.5442    2.9634    4.0072 O.3       1 <0>        -0.5411
     32 N5          0.2402   -3.3953   -2.0590 N.pl3     1 <0>        -0.6312
     33 C22         0.3654   -4.8615   -2.0606 C.3       1 <0>         0.0865
     34 C23        -0.7404   -5.4402   -2.9506 C.3       1 <0>         0.0458
     35 O3         -0.7012   -4.7983   -4.2274 O.3       1 <0>        -0.3797
     36 C24        -0.9535   -3.3918   -4.1834 C.3       1 <0>         0.0453
     37 C25         0.1357   -2.7087   -3.3563 C.3       1 <0>         0.0882
     38 H4          1.2131    1.3055    0.2367 H         1 <0>         0.0703
     39 H5         -0.3149    1.2764   -0.6758 H         1 <0>         0.0645
     40 H6         -0.3416    1.3283    1.1032 H         1 <0>         0.0739
     41 H7          0.2303   -0.7662   -1.8342 H         1 <0>         0.1282
     42 H8          0.1946   -4.4322    0.3682 H         1 <0>         0.1205
     43 H9         -0.1314    0.4433    7.6528 H         1 <0>         0.1523
     44 H10         0.0686   -1.6162    8.9085 H         1 <0>         0.1725
     45 H11        -0.1949    0.6085    4.0311 H         1 <0>         0.4342
     46 H12        -0.9888    1.9705    6.3745 H         1 <0>         0.0761
     47 H13         0.7842    2.0621    6.2458 H         1 <0>         0.0833
     48 H14        -2.1940    4.3651    6.0433 H         1 <0>         0.1287
     49 H15        -2.0220    6.5415    7.1812 H         1 <0>         0.1361
     50 H16         0.0976    7.7936    7.1308 H         1 <0>         0.1361
     51 H17         1.8773    4.6836    4.8140 H         1 <0>         0.1367
     52 H18        -2.3004    3.0335    4.6059 H         1 <0>         0.3756
     53 H19         1.3408   -5.1463   -2.4550 H         1 <0>         0.0707
     54 H20         0.2549   -5.2405   -1.0446 H         1 <0>         0.0921
     55 H21        -0.5831   -6.5114   -3.0767 H         1 <0>         0.1043
     56 H22        -1.7107   -5.2663   -2.4854 H         1 <0>         0.0557
     57 H23        -0.9495   -2.9893   -5.1964 H         1 <0>         0.1053
     58 H24        -1.9246   -3.2104   -3.7226 H         1 <0>         0.0555
     59 H25        -0.1269   -1.6627   -3.1979 H         1 <0>         0.0936
     60 H26         1.0876   -2.7730   -3.8834 H         1 <0>         0.0702
@<TRIPOS>BOND
     1    1    2 1
     2    1   38 1
     3    1   39 1
     4    1   40 1
     5    2    7 ar
     6    2    3 ar
     7    3    4 ar
     8    3   41 1
     9    4    5 ar
    10    4   32 1
    11    5    6 ar
    12    5   42 1
    13    6   10 1
    14    6    7 ar
    15    7    8 1
    16    8    9 2
    17    9   10 1
    18    9   12 1
    19   10   11 1
    20   12   18 1
    21   12   13 2
    22   13   14 1
    23   13   20 1
    24   14   15 2
    25   14   43 1
    26   15   16 1
    27   15   44 1
    28   16   17 1
    29   16   18 am
    30   18   19 2
    31   20   21 1
    32   20   45 1
    33   21   22 1
    34   21   46 1
    35   21   47 1
    36   22   23 1
    37   22   24 1
    38   22   31 1
    39   24   29 ar
    40   24   25 ar
    41   25   26 ar
    42   25   48 1
    43   26   27 ar
    44   26   49 1
    45   27   28 ar
    46   27   50 1
    47   28   29 ar
    48   28   30 1
    49   29   51 1
    50   31   52 1
    51   32   37 1
    52   32   33 1
    53   33   34 1
    54   33   53 1
    55   33   54 1
    56   34   35 1
    57   34   55 1
    58   34   56 1
    59   35   36 1
    60   36   37 1
    61   36   57 1
    62   36   58 1
    63   37   59 1
    64   37   60 1
@<TRIPOS>MOLECULE
CHEMBL337728
   55    59     0     0     0
SMALL
USER_CHARGES

@<TRIPOS>ATOM
      1 C1          8.5534    1.1582    5.0145 C.3       1 <0>         0.0221
      2 O1          8.4700   -0.2636    5.1302 O.3       1 <0>        -0.3018
      3 C2          7.2991   -0.7776    5.5915 C.ar      1 <0>         0.1319
      4 C3          6.2807    0.0681    5.9092 C.ar      1 <0>        -0.1832
      5 C4          5.0626   -0.4574    6.3879 C.ar      1 <0>        -0.0396
      6 C5          3.9989    0.3817    6.7222 C.ar      1 <0>        -0.0516
      7 C6          2.8115   -0.1696    7.1908 C.ar      1 <0>        -0.1138
      8 C7          2.6700   -1.6210    7.3358 C.ar      1 <0>         0.1354
      9 C8          3.7303   -2.4585    7.0027 C.ar      1 <0>        -0.0801
     10 C9          4.9247   -1.9100    6.5316 C.ar      1 <0>        -0.0075
     11 C10         6.0153   -2.7335    6.1860 C.ar      1 <0>        -0.1941
     12 C11         7.1655   -2.1689    5.7238 C.ar      1 <0>         0.1442
     13 O2          8.2100   -2.9706    5.3883 O.3       1 <0>        -0.3013
     14 C12         8.0223   -4.3789    5.5416 C.3       1 <0>         0.0210
     15 N1          1.5112   -2.1324    7.7909 N.ar      1 <0>        -0.4613
     16 C13         0.4993   -1.3711    8.1108 C.ar      1 <0>         0.1835
     17 C14         0.5464    0.0288    8.0036 C.ar      1 <0>        -0.0947
     18 C15         1.7099    0.6563    7.5392 C.ar      1 <0>         0.2771
     19 N2          1.7828    2.0274    7.4245 N.pl3     1 <0>        -0.7085
     20 C16         1.4562    2.6464    6.2131 C.ar      1 <0>         0.1724
     21 C17         0.9561    1.8916    5.1597 C.ar      1 <0>        -0.1404
     22 C18         0.6335    2.5033    3.9647 C.ar      1 <0>        -0.0982
     23 C19         0.8092    3.8715    3.8156 C.ar      1 <0>         0.0832
     24 C20         1.3090    4.6262    4.8672 C.ar      1 <0>        -0.1482
     25 C21         1.6263    4.0170    6.0650 C.ar      1 <0>        -0.1378
     26 O3          0.4917    4.4730    2.6384 O.3       1 <0>        -0.2612
     27 C22         0.6594    5.8181    2.5437 C.ar      1 <0>         0.0842
     28 C23         1.8586    6.3379    2.0778 C.ar      1 <0>        -0.1265
     29 C24         2.0265    7.7057    1.9826 C.ar      1 <0>        -0.1066
     30 C25         1.0008    8.5567    2.3511 C.ar      1 <0>        -0.1177
     31 C26        -0.1952    8.0414    2.8157 C.ar      1 <0>        -0.1060
     32 C27        -0.3703    6.6742    2.9075 C.ar      1 <0>        -0.1273
     33 C28        -0.5939    0.8141    8.3691 C.1       1 <0>         0.2553
     34 N3         -1.4985    1.4370    8.6592 N.1       1 <0>        -0.3979
     35 H1          8.3998    1.6121    5.9935 H         1 <0>         0.0590
     36 H2          9.5374    1.4349    4.6361 H         1 <0>         0.1056
     37 H3          7.7865    1.5123    4.3255 H         1 <0>         0.0593
     38 H4          6.4050    1.1349    5.7958 H         1 <0>         0.1464
     39 H5          4.0973    1.4521    6.6179 H         1 <0>         0.1385
     40 H6          3.6298   -3.5285    7.1085 H         1 <0>         0.1470
     41 H7          5.9380   -3.8063    6.2835 H         1 <0>         0.1495
     42 H8          8.9299   -4.9015    5.2396 H         1 <0>         0.1059
     43 H9          7.8032   -4.6048    6.5852 H         1 <0>         0.0606
     44 H10         7.1905   -4.7047    4.9169 H         1 <0>         0.0608
     45 H11        -0.4073   -1.8350    8.4706 H         1 <0>         0.1705
     46 H12         2.0606    2.5636    8.1836 H         1 <0>         0.4177
     47 H13         0.8200    0.8265    5.2753 H         1 <0>         0.1277
     48 H14         0.2447    1.9165    3.1456 H         1 <0>         0.1353
     49 H15         1.4461    5.6911    4.7502 H         1 <0>         0.1308
     50 H16         2.0108    4.6053    6.8850 H         1 <0>         0.1286
     51 H17         2.6602    5.6737    1.7902 H         1 <0>         0.1308
     52 H18         2.9598    8.1108    1.6203 H         1 <0>         0.1308
     53 H19         1.1343    9.6258    2.2762 H         1 <0>         0.1287
     54 H20        -0.9947    8.7082    3.1029 H         1 <0>         0.1308
     55 H21        -1.3063    6.2721    3.2662 H         1 <0>         0.1307
@<TRIPOS>BOND
     1    1    2 1
     2    1   35 1
     3    1   36 1
     4    1   37 1
     5    2    3 1
     6    3   12 ar
     7    3    4 ar
     8    4    5 ar
     9    4   38 1
    10    5   10 ar
    11    5    6 ar
    12    6    7 ar
    13    6   39 1
    14    7   18 ar
    15    7    8 ar
    16    8    9 ar
    17    8   15 ar
    18    9   10 ar
    19    9   40 1
    20   10   11 ar
    21   11   12 ar
    22   11   41 1
    23   12   13 1
    24   13   14 1
    25   14   42 1
    26   14   43 1
    27   14   44 1
    28   15   16 ar
    29   16   17 ar
    30   16   45 1
    31   17   18 ar
    32   17   33 1
    33   18   19 1
    34   19   20 1
    35   19   46 1
    36   20   25 ar
    37   20   21 ar
    38   21   22 ar
    39   21   47 1
    40   22   23 ar
    41   22   48 1
    42   23   24 ar
    43   23   26 1
    44   24   25 ar
    45   24   49 1
    46   25   50 1
    47   26   27 1
    48   27   32 ar
    49   27   28 ar
    50   28   29 ar
    51   28   51 1
    52   29   30 ar
    53   29   52 1
    54   30   31 ar
    55   30   53 1
    56   31   32 ar
    57   31   54 1
    58   32   55 1
    59   33   34 3
@<TRIPOS>MOLECULE
CHEMBL34601
   52    54     0     0     0
SMALL
USER_CHARGES

@<TRIPOS>ATOM
      1 C1          1.0397   -0.3000   -3.1720 C.ar      1 <0>        -0.0633
      2 C2          2.2342    0.3969   -3.1800 C.ar      1 <0>        -0.1609
      3 C3          3.1372    0.2410   -2.1453 C.ar      1 <0>        -0.0731
      4 C4          2.8463   -0.6163   -1.0942 C.ar      1 <0>        -0.1920
      5 C5          1.6411   -1.3190   -1.0858 C.ar      1 <0>         0.2482
      6 C6          0.7413   -1.1566   -2.1287 C.ar      1 <0>        -0.1835
      7 N1          1.3414   -2.1853   -0.0290 N.pl3     1 <0>        -0.8699
      8 S1          3.9957   -0.8176    0.2260 S.3       1 <0>         0.0165
      9 C7          5.2449    0.3787   -0.1102 C.2       1 <0>         0.2147
     10 C8          6.5288   -0.0325   -0.4390 C.2       1 <0>        -0.1193
     11 C9          6.8385   -1.4290   -0.5049 C.1       1 <0>         0.2693
     12 N2          7.0842   -2.5369   -0.5572 N.1       1 <0>        -0.4235
     13 C10         7.5782    0.9725   -0.7215 C.ar      1 <0>        -0.0197
     14 C11         7.4614    1.8157   -1.8274 C.ar      1 <0>        -0.1079
     15 C12         8.4428    2.7501   -2.0853 C.ar      1 <0>        -0.1127
     16 C13         9.5416    2.8522   -1.2503 C.ar      1 <0>        -0.1057
     17 C14         9.6635    2.0191   -0.1526 C.ar      1 <0>        -0.1075
     18 C15         8.6854    1.0847    0.1200 C.ar      1 <0>        -0.0915
     19 C16        10.8637    2.1368    0.7511 C.3       1 <0>         0.1496
     20 C17        10.6131    3.2298    1.7919 C.3       1 <0>        -0.1121
     21 C18        10.3758    4.5646    1.0828 C.3       1 <0>        -0.1222
     22 C19        10.1252    5.6576    2.1236 C.3       1 <0>        -0.1170
     23 C20        11.3438    5.7772    3.0411 C.3       1 <0>        -0.1213
     24 C21        11.5811    4.4424    3.7503 C.3       1 <0>        -0.1204
     25 C22        11.8316    3.3493    2.7094 C.3       1 <0>        -0.1109
     26 O1         12.0142    2.4742   -0.0265 O.3       1 <0>        -0.5498
     27 N3          4.9481    1.7170   -0.0470 N.pl3     1 <0>        -0.8259
     28 H1          0.3359   -0.1713   -3.9810 H         1 <0>         0.1275
     29 H2          2.4623    1.0648   -3.9975 H         1 <0>         0.1251
     30 H3          4.0693    0.7864   -2.1552 H         1 <0>         0.1242
     31 H4         -0.1926   -1.6989   -2.1255 H         1 <0>         0.1289
     32 H5          1.9719   -2.2981    0.6995 H         1 <0>         0.3994
     33 H6          0.5030   -2.6732   -0.0247 H         1 <0>         0.4041
     34 H7          6.6047    1.7365   -2.4802 H         1 <0>         0.1245
     35 H8          8.3536    3.4032   -2.9408 H         1 <0>         0.1272
     36 H9         10.3075    3.5852   -1.4566 H         1 <0>         0.1213
     37 H10         8.7793    0.4381    0.9799 H         1 <0>         0.1249
     38 H11        11.0328    1.1859    1.2563 H         1 <0>         0.1077
     39 H12         9.7356    2.9724    2.3850 H         1 <0>         0.0799
     40 H13        11.2534    4.8220    0.4897 H         1 <0>         0.0614
     41 H14         9.5077    4.4795    0.4291 H         1 <0>         0.0695
     42 H15         9.9562    6.6086    1.6184 H         1 <0>         0.0615
     43 H16         9.2477    5.4003    2.7167 H         1 <0>         0.0609
     44 H17        12.2213    6.0345    2.4480 H         1 <0>         0.0617
     45 H18        11.1652    6.5559    3.7827 H         1 <0>         0.0603
     46 H19        12.4492    4.5275    4.4039 H         1 <0>         0.0622
     47 H20        10.7035    4.1850    4.3434 H         1 <0>         0.0601
     48 H21        12.0007    2.3984    3.2147 H         1 <0>         0.0619
     49 H22        12.7092    3.6067    2.1163 H         1 <0>         0.0701
     50 H23        11.9340    3.3108   -0.5048 H         1 <0>         0.3712
     51 H24         4.0347    2.0044    0.1081 H         1 <0>         0.4097
     52 H25         5.6516    2.3756   -0.1575 H         1 <0>         0.4069
@<TRIPOS>BOND
     1    1    6 ar
     2    1    2 ar
     3    1   28 1
     4    2    3 ar
     5    2   29 1
     6    3    4 ar
     7    3   30 1
     8    4    5 ar
     9    4    8 1
    10    5    6 ar
    11    5    7 1
    12    6   31 1
    13    7   32 1
    14    7   33 1
    15    8    9 1
    16    9   10 2
    17    9   27 1
    18   10   11 1
    19   10   13 1
    20   11   12 3
    21   13   18 ar
    22   13   14 ar
    23   14   15 ar
    24   14   34 1
    25   15   16 ar
    26   15   35 1
    27   16   17 ar
    28   16   36 1
    29   17   18 ar
    30   17   19 1
    31   18   37 1
    32   19   20 1
    33   19   26 1
    34   19   38 1
    35   20   25 1
    36   20   21 1
    37   20   39 1
    38   21   22 1
    39   21   40 1
    40   21   41 1
    41   22   23 1
    42   22   42 1
    43   22   43 1
    44   23   24 1
    45   23   44 1
    46   23   45 1
    47   24   25 1
    48   24   46 1
    49   24   47 1
    50   25   48 1
    51   25   49 1
    52   26   50 1
    53   27   51 1
    54   27   52 1
@<TRIPOS>MOLECULE
CHEMBL34601__1
   52    54     0     0     0
SMALL
USER_CHARGES

@<TRIPOS>ATOM
      1 C1          1.7816   -0.0928   -4.0219 C.ar      1 <0>        -0.0641
      2 C2          2.9467    0.5957   -3.7371 C.ar      1 <0>        -0.1614
      3 C3          3.6088    0.3781   -2.5435 C.ar      1 <0>        -0.0715
      4 C4          3.1047   -0.5329   -1.6268 C.ar      1 <0>        -0.1934
      5 C5          1.9291   -1.2271   -1.9139 C.ar      1 <0>         0.2484
      6 C6          1.2718   -1.0025   -3.1143 C.ar      1 <0>        -0.1839
      7 N1          1.4151   -2.1472   -0.9939 N.pl3     1 <0>        -0.8701
      8 S1          3.9469   -0.8128   -0.1046 S.3       1 <0>         0.0422
      9 C7          5.2449    0.3787   -0.1102 C.2       1 <0>         0.2081
     10 C8          6.5673   -0.0362   -0.1786 C.2       1 <0>        -0.1184
     11 C9          7.6222    0.9321   -0.1832 C.1       1 <0>         0.2612
     12 N2          8.4591    1.7003   -0.1868 N.1       1 <0>        -0.4296
     13 C10         6.8874   -1.4798   -0.2467 C.ar      1 <0>        -0.0094
     14 C11         6.5795   -2.3173    0.8263 C.ar      1 <0>        -0.0905
     15 C12         6.8805   -3.6616    0.7566 C.ar      1 <0>        -0.1139
     16 C13         7.4868   -4.1802   -0.3740 C.ar      1 <0>        -0.1050
     17 C14         7.7951   -3.3553   -1.4409 C.ar      1 <0>        -0.1100
     18 C15         7.4931   -2.0100   -1.3863 C.ar      1 <0>        -0.0898
     19 C16         8.4559   -3.9284   -2.6681 C.3       1 <0>         0.1508
     20 C17         7.3874   -4.4962   -3.6045 C.3       1 <0>        -0.1114
     21 C18         6.6098   -5.5983   -2.8823 C.3       1 <0>        -0.1216
     22 C19         5.5414   -6.1661   -3.8187 C.3       1 <0>        -0.1163
     23 C20         6.2122   -6.7480   -5.0646 C.3       1 <0>        -0.1207
     24 C21         6.9898   -5.6459   -5.7868 C.3       1 <0>        -0.1201
     25 C22         8.0583   -5.0781   -4.8504 C.3       1 <0>        -0.1106
     26 O1          9.3541   -4.9708   -2.2826 O.3       1 <0>        -0.5511
     27 N3          4.9481    1.7170   -0.0470 N.pl3     1 <0>        -0.8332
     28 H1          1.2660    0.0840   -4.9543 H         1 <0>         0.1263
     29 H2          3.3405    1.3053   -4.4497 H         1 <0>         0.1232
     30 H3          4.5188    0.9170   -2.3248 H         1 <0>         0.1216
     31 H4          0.3615   -1.5381   -3.3400 H         1 <0>         0.1280
     32 H5          1.8762   -2.3034   -0.1549 H         1 <0>         0.3990
     33 H6          0.5976   -2.6291   -1.1951 H         1 <0>         0.4035
     34 H7          6.1069   -1.9136    1.7096 H         1 <0>         0.1225
     35 H8          6.6427   -4.3108    1.5864 H         1 <0>         0.1256
     36 H9          7.7208   -5.2334   -0.4236 H         1 <0>         0.1191
     37 H10         7.7298   -1.3679   -2.2218 H         1 <0>         0.1204
     38 H11         9.0098   -3.1432   -3.1826 H         1 <0>         0.1056
     39 H12         6.7023   -3.7011   -3.8986 H         1 <0>         0.0799
     40 H13         7.2950   -6.3934   -2.5882 H         1 <0>         0.0602
     41 H14         6.1319   -5.1838   -1.9946 H         1 <0>         0.0715
     42 H15         4.9874   -6.9513   -3.3041 H         1 <0>         0.0606
     43 H16         4.8562   -5.3710   -4.1127 H         1 <0>         0.0609
     44 H17         6.8974   -7.5431   -4.7705 H         1 <0>         0.0612
     45 H18         5.4511   -7.1525   -5.7317 H         1 <0>         0.0594
     46 H19         7.4678   -6.0604   -6.6745 H         1 <0>         0.0612
     47 H20         6.3047   -4.8508   -6.0809 H         1 <0>         0.0599
     48 H21         8.6123   -4.2929   -5.3650 H         1 <0>         0.0608
     49 H22         8.7434   -5.8732   -4.5564 H         1 <0>         0.0695
     50 H23         8.9288   -5.7048   -1.8184 H         1 <0>         0.3711
     51 H24         4.0347    2.0044    0.1081 H         1 <0>         0.4112
     52 H25         5.6516    2.3756   -0.1575 H         1 <0>         0.4028
@<TRIPOS>BOND
     1    1    6 ar
     2    1    2 ar
     3    1   28 1
     4    2    3 ar
     5    2   29 1
     6    3    4 ar
     7    3   30 1
     8    4    5 ar
     9    4    8 1
    10    5    6 ar
    11    5    7 1
    12    6   31 1
    13    7   32 1
    14    7   33 1
    15    8    9 1
    16    9   10 2
    17    9   27 1
    18   10   11 1
    19   10   13 1
    20   11   12 3
    21   13   18 ar
    22   13   14 ar
    23   14   15 ar
    24   14   34 1
    25   15   16 ar
    26   15   35 1
    27   16   17 ar
    28   16   36 1
    29   17   18 ar
    30   17   19 1
    31   18   37 1
    32   19   20 1
    33   19   26 1
    34   19   38 1
    35   20   25 1
    36   20   21 1
    37   20   39 1
    38   21   22 1
    39   21   40 1
    40   21   41 1
    41   22   23 1
    42   22   42 1
    43   22   43 1
    44   23   24 1
    45   23   44 1
    46   23   45 1
    47   24   25 1
    48   24   46 1
    49   24   47 1
    50   25   48 1
    51   25   49 1
    52   26   50 1
    53   27   51 1
    54   27   52 1
@<TRIPOS>MOLECULE
CHEMBL34601__2
   52    54     0     0     0
SMALL
USER_CHARGES

@<TRIPOS>ATOM
      1 C1          1.0397   -0.3000   -3.1720 C.ar      1 <0>        -0.0633
      2 C2          2.2342    0.3969   -3.1800 C.ar      1 <0>        -0.1610
      3 C3          3.1372    0.2410   -2.1453 C.ar      1 <0>        -0.0731
      4 C4          2.8463   -0.6163   -1.0942 C.ar      1 <0>        -0.1921
      5 C5          1.6411   -1.3190   -1.0858 C.ar      1 <0>         0.2483
      6 C6          0.7413   -1.1566   -2.1287 C.ar      1 <0>        -0.1836
      7 N1          1.3414   -2.1853   -0.0290 N.pl3     1 <0>        -0.8699
      8 S1          3.9957   -0.8176    0.2260 S.3       1 <0>         0.0165
      9 C7          5.2449    0.3787   -0.1102 C.2       1 <0>         0.2154
     10 C8          6.5288   -0.0325   -0.4390 C.2       1 <0>        -0.1210
     11 C9          6.8385   -1.4290   -0.5049 C.1       1 <0>         0.2699
     12 N2          7.0842   -2.5369   -0.5572 N.1       1 <0>        -0.4240
     13 C10         7.5782    0.9725   -0.7215 C.ar      1 <0>        -0.0197
     14 C11         7.4614    1.8157   -1.8274 C.ar      1 <0>        -0.1084
     15 C12         8.4428    2.7501   -2.0853 C.ar      1 <0>        -0.1114
     16 C13         9.5416    2.8522   -1.2503 C.ar      1 <0>        -0.1079
     17 C14         9.6635    2.0191   -0.1526 C.ar      1 <0>        -0.1063
     18 C15         8.6854    1.0847    0.1200 C.ar      1 <0>        -0.0894
     19 C16        10.8637    2.1368    0.7511 C.3       1 <0>         0.1499
     20 C17        12.0529    1.4128    0.1166 C.3       1 <0>        -0.1106
     21 C18        11.7051   -0.0642   -0.0796 C.3       1 <0>        -0.1140
     22 C19        12.8942   -0.7882   -0.7141 C.3       1 <0>        -0.1186
     23 C20        14.1128   -0.6687    0.2034 C.3       1 <0>        -0.1215
     24 C21        14.4605    0.8083    0.3996 C.3       1 <0>        -0.1198
     25 C22        13.2714    1.5323    1.0341 C.3       1 <0>        -0.1102
     26 O1         11.1885    3.5163    0.9343 O.3       1 <0>        -0.5509
     27 N3          4.9481    1.7170   -0.0470 N.pl3     1 <0>        -0.8254
     28 H1          0.3359   -0.1713   -3.9810 H         1 <0>         0.1275
     29 H2          2.4623    1.0648   -3.9975 H         1 <0>         0.1251
     30 H3          4.0693    0.7864   -2.1552 H         1 <0>         0.1242
     31 H4         -0.1926   -1.6989   -2.1255 H         1 <0>         0.1289
     32 H5          1.9719   -2.2981    0.6995 H         1 <0>         0.3994
     33 H6          0.5030   -2.6732   -0.0247 H         1 <0>         0.4041
     34 H7          6.6047    1.7365   -2.4802 H         1 <0>         0.1245
     35 H8          8.3536    3.4032   -2.9408 H         1 <0>         0.1270
     36 H9         10.3075    3.5852   -1.4566 H         1 <0>         0.1206
     37 H10         8.7793    0.4381    0.9799 H         1 <0>         0.1246
     38 H11        10.6369    1.6855    1.7170 H         1 <0>         0.1067
     39 H12        12.2797    1.8640   -0.8494 H         1 <0>         0.0736
     40 H13        11.4782   -0.5155    0.8863 H         1 <0>         0.0627
     41 H14        10.8370   -0.1494   -0.7333 H         1 <0>         0.0655
     42 H15        12.6465   -1.8405   -0.8539 H         1 <0>         0.0619
     43 H16        13.1211   -0.3370   -1.6801 H         1 <0>         0.0605
     44 H17        13.8859   -1.1200    1.1693 H         1 <0>         0.0614
     45 H18        14.9599   -1.1845   -0.2487 H         1 <0>         0.0605
     46 H19        15.3286    0.8934    1.0532 H         1 <0>         0.0621
     47 H20        14.6874    1.2595   -0.5664 H         1 <0>         0.0602
     48 H21        13.5191    2.5845    1.1738 H         1 <0>         0.0689
     49 H22        13.0445    1.0810    2.0000 H         1 <0>         0.0623
     50 H23        11.4019    3.9824    0.1144 H         1 <0>         0.3727
     51 H24         4.0347    2.0044    0.1081 H         1 <0>         0.4098
     52 H25         5.6516    2.3756   -0.1575 H         1 <0>         0.4074
@<TRIPOS>BOND
     1    1    6 ar
     2    1    2 ar
     3    1   28 1
     4    2    3 ar
     5    2   29 1
     6    3    4 ar
     7    3   30 1
     8    4    5 ar
     9    4    8 1
    10    5    6 ar
    11    5    7 1
    12    6   31 1
    13    7   32 1
    14    7   33 1
    15    8    9 1
    16    9   10 2
    17    9   27 1
    18   10   11 1
    19   10   13 1
    20   11   12 3
    21   13   18 ar
    22   13   14 ar
    23   14   15 ar
    24   14   34 1
    25   15   16 ar
    26   15   35 1
    27   16   17 ar
    28   16   36 1
    29   17   18 ar
    30   17   19 1
    31   18   37 1
    32   19   20 1
    33   19   26 1
    34   19   38 1
    35   20   25 1
    36   20   21 1
    37   20   39 1
    38   21   22 1
    39   21   40 1
    40   21   41 1
    41   22   23 1
    42   22   42 1
    43   22   43 1
    44   23   24 1
    45   23   44 1
    46   23   45 1
    47   24   25 1
    48   24   46 1
    49   24   47 1
    50   25   48 1
    51   25   49 1
    52   26   50 1
    53   27   51 1
    54   27   52 1
@<TRIPOS>MOLECULE
CHEMBL34601__3
   52    54     0     0     0
SMALL
USER_CHARGES

@<TRIPOS>ATOM
      1 C1          1.7816   -0.0928   -4.0219 C.ar      1 <0>        -0.0639
      2 C2          2.9467    0.5957   -3.7371 C.ar      1 <0>        -0.1615
      3 C3          3.6088    0.3781   -2.5435 C.ar      1 <0>        -0.0716
      4 C4          3.1047   -0.5329   -1.6268 C.ar      1 <0>        -0.1938
      5 C5          1.9291   -1.2271   -1.9139 C.ar      1 <0>         0.2485
      6 C6          1.2718   -1.0025   -3.1143 C.ar      1 <0>        -0.1837
      7 N1          1.4151   -2.1472   -0.9939 N.pl3     1 <0>        -0.8700
      8 S1          3.9469   -0.8128   -0.1046 S.3       1 <0>         0.0419
      9 C7          5.2449    0.3787   -0.1102 C.2       1 <0>         0.2090
     10 C8          6.5673   -0.0362   -0.1786 C.2       1 <0>        -0.1199
     11 C9          7.6222    0.9321   -0.1832 C.1       1 <0>         0.2617
     12 N2          8.4591    1.7003   -0.1868 N.1       1 <0>        -0.4301
     13 C10         6.8874   -1.4798   -0.2467 C.ar      1 <0>        -0.0094
     14 C11         6.5795   -2.3173    0.8263 C.ar      1 <0>        -0.0909
     15 C12         6.8805   -3.6616    0.7566 C.ar      1 <0>        -0.1127
     16 C13         7.4868   -4.1802   -0.3740 C.ar      1 <0>        -0.1071
     17 C14         7.7951   -3.3553   -1.4409 C.ar      1 <0>        -0.1089
     18 C15         7.4931   -2.0100   -1.3863 C.ar      1 <0>        -0.0875
     19 C16         8.4559   -3.9284   -2.6681 C.3       1 <0>         0.1514
     20 C17         9.9550   -4.0926   -2.4104 C.3       1 <0>        -0.1105
     21 C18        10.5699   -2.7287   -2.0900 C.3       1 <0>        -0.1136
     22 C19        12.0691   -2.8930   -1.8324 C.3       1 <0>        -0.1184
     23 C20        12.7399   -3.4748   -3.0783 C.3       1 <0>        -0.1213
     24 C21        12.1251   -4.8387   -3.3987 C.3       1 <0>        -0.1197
     25 C22        10.6259   -4.6745   -3.6564 C.3       1 <0>        -0.1103
     26 O1          7.8816   -5.2022   -2.9674 O.3       1 <0>        -0.5510
     27 N3          4.9481    1.7170   -0.0470 N.pl3     1 <0>        -0.8329
     28 H1          1.2660    0.0840   -4.9543 H         1 <0>         0.1266
     29 H2          3.3405    1.3053   -4.4497 H         1 <0>         0.1234
     30 H3          4.5188    0.9170   -2.3248 H         1 <0>         0.1215
     31 H4          0.3615   -1.5381   -3.3400 H         1 <0>         0.1284
     32 H5          1.8762   -2.3034   -0.1549 H         1 <0>         0.3990
     33 H6          0.5976   -2.6291   -1.1951 H         1 <0>         0.4037
     34 H7          6.1069   -1.9136    1.7096 H         1 <0>         0.1225
     35 H8          6.6427   -4.3108    1.5864 H         1 <0>         0.1254
     36 H9          7.7208   -5.2334   -0.4236 H         1 <0>         0.1184
     37 H10         7.7298   -1.3679   -2.2218 H         1 <0>         0.1201
     38 H11         8.3038   -3.2542   -3.5110 H         1 <0>         0.1048
     39 H12        10.1071   -4.7668   -1.5675 H         1 <0>         0.0737
     40 H13        10.4178   -2.0546   -2.9329 H         1 <0>         0.0617
     41 H14        10.0919   -2.3142   -1.2024 H         1 <0>         0.0658
     42 H15        12.5071   -1.9213   -1.6041 H         1 <0>         0.0609
     43 H16        12.2211   -3.5671   -0.9895 H         1 <0>         0.0607
     44 H17        12.5879   -2.8007   -3.9212 H         1 <0>         0.0609
     45 H18        13.8080   -3.5918   -2.8947 H         1 <0>         0.0600
     46 H19        12.6030   -5.2532   -4.2863 H         1 <0>         0.0617
     47 H20        12.2772   -5.5129   -2.5558 H         1 <0>         0.0602
     48 H21        10.1879   -5.6461   -3.8846 H         1 <0>         0.0689
     49 H22        10.4738   -4.0003   -4.4993 H         1 <0>         0.0617
     50 H23         7.9798   -5.8539   -2.2598 H         1 <0>         0.3723
     51 H24         4.0347    2.0044    0.1081 H         1 <0>         0.4113
     52 H25         5.6516    2.3756   -0.1575 H         1 <0>         0.4026
@<TRIPOS>BOND
     1    1    6 ar
     2    1    2 ar
     3    1   28 1
     4    2    3 ar
     5    2   29 1
     6    3    4 ar
     7    3   30 1
     8    4    5 ar
     9    4    8 1
    10    5    6 ar
    11    5    7 1
    12    6   31 1
    13    7   32 1
    14    7   33 1
    15    8    9 1
    16    9   10 2
    17    9   27 1
    18   10   11 1
    19   10   13 1
    20   11   12 3
    21   13   18 ar
    22   13   14 ar
    23   14   15 ar
    24   14   34 1
    25   15   16 ar
    26   15   35 1
    27   16   17 ar
    28   16   36 1
    29   17   18 ar
    30   17   19 1
    31   18   37 1
    32   19   20 1
    33   19   26 1
    34   19   38 1
    35   20   25 1
    36   20   21 1
    37   20   39 1
    38   21   22 1
    39   21   40 1
    40   21   41 1
    41   22   23 1
    42   22   42 1
    43   22   43 1
    44   23   24 1
    45   23   44 1
    46   23   45 1
    47   24   25 1
    48   24   46 1
    49   24   47 1
    50   25   48 1
    51   25   49 1
    52   26   50 1
    53   27   51 1
    54   27   52 1
@<TRIPOS>MOLECULE
CHEMBL33906
   52    55     0     0     0
SMALL
USER_CHARGES

@<TRIPOS>ATOM
      1 C1          0.2214    1.5693    0.3104 C.ar      1 <0>        -0.1147
      2 C2          1.4327    2.2514    0.2099 C.ar      1 <0>        -0.1093
      3 C3          2.6105    1.5770    0.1106 C.ar      1 <0>        -0.1124
      4 C4          2.6091    0.1715    0.1096 C.ar      1 <0>        -0.0362
      5 C5          1.3773   -0.5222    0.2123 C.ar      1 <0>        -0.0503
      6 C6          0.1812    0.2090    0.3126 C.ar      1 <0>        -0.1044
      7 C7          1.3758   -1.9272    0.2117 C.ar      1 <0>        -0.1030
      8 C8          2.5540   -2.6019    0.1129 C.ar      1 <0>        -0.1130
      9 C9          3.7649   -1.9200    0.0124 C.ar      1 <0>        -0.1051
     10 C10         3.8049   -0.5593    0.0093 C.ar      1 <0>        -0.0998
     11 C11         5.1248    0.1594   -0.1013 C.3       1 <0>         0.1883
     12 C12         5.3878    0.5080   -1.5436 C.ar      1 <0>        -0.1049
     13 C13         5.8727   -0.4562   -2.4097 C.ar      1 <0>        -0.1042
     14 C14         6.1167   -0.1442   -3.7352 C.ar      1 <0>        -0.1091
     15 C15         5.8774    1.1321   -4.2019 C.ar      1 <0>        -0.1105
     16 C16         5.3880    2.1087   -3.3339 C.ar      1 <0>        -0.0164
     17 C17         5.1391    1.7861   -1.9991 C.ar      1 <0>        -0.0879
     18 C18         5.1292    3.4798   -3.8279 C.2       1 <0>        -0.1214
     19 C19         4.1424    3.7001   -4.7783 C.2       1 <0>         0.2169
     20 N1          3.4064    2.6469   -5.2601 N.pl3     1 <0>        -0.8253
     21 S1          3.8343    5.3323   -5.3663 S.3       1 <0>         0.0175
     22 C20         2.2132    5.6976   -4.7803 C.ar      1 <0>        -0.1922
     23 C21         1.5605    4.8080   -3.9394 C.ar      1 <0>        -0.0722
     24 C22         0.2891    5.0969   -3.4806 C.ar      1 <0>        -0.1597
     25 C23        -0.3364    6.2713   -3.8576 C.ar      1 <0>        -0.0633
     26 C24         0.3064    7.1637   -4.6952 C.ar      1 <0>        -0.1838
     27 C25         1.5845    6.8850   -5.1559 C.ar      1 <0>         0.2485
     28 N2          2.2392    7.7893   -5.9990 N.pl3     1 <0>        -0.8701
     29 C26         5.8971    4.5789   -3.3251 C.1       1 <0>         0.2693
     30 N3          6.5064    5.4508   -2.9262 N.1       1 <0>        -0.4229
     31 O1          6.1699   -0.6867    0.3824 O.3       1 <0>        -0.5426
     32 H1         -0.6988    2.1287    0.3922 H         1 <0>         0.1239
     33 H2          1.4366    3.3314    0.2104 H         1 <0>         0.1241
     34 H3          3.5415    2.1189    0.0327 H         1 <0>         0.1249
     35 H4         -0.7649   -0.3060    0.3915 H         1 <0>         0.1274
     36 H5          0.4449   -2.4691    0.2897 H         1 <0>         0.1281
     37 H6          2.5501   -3.6819    0.1128 H         1 <0>         0.1257
     38 H7          4.6856   -2.4794   -0.0645 H         1 <0>         0.1215
     39 H8          5.0923    1.0725    0.4931 H         1 <0>         0.1181
     40 H9          6.0619   -1.4565   -2.0492 H         1 <0>         0.1205
     41 H10         6.4955   -0.9011   -4.4060 H         1 <0>         0.1287
     42 H11         6.0689    1.3746   -5.2367 H         1 <0>         0.1277
     43 H12         4.7567    2.5367   -1.3232 H         1 <0>         0.1250
     44 H13         3.6215    1.7407   -4.9890 H         1 <0>         0.4070
     45 H14         2.6712    2.8085   -5.8718 H         1 <0>         0.4098
     46 H15         2.0456    3.8896   -3.6436 H         1 <0>         0.1250
     47 H16        -0.2176    4.4032   -2.8261 H         1 <0>         0.1246
     48 H17        -1.3302    6.4918   -3.4967 H         1 <0>         0.1270
     49 H18        -0.1852    8.0799   -4.9875 H         1 <0>         0.1286
     50 H19         3.1317    7.5912   -6.3233 H         1 <0>         0.3993
     51 H20         1.8007    8.6145   -6.2592 H         1 <0>         0.4040
     52 H21         6.2572   -1.5196   -0.1012 H         1 <0>         0.3736
@<TRIPOS>BOND
     1    1    6 ar
     2    1    2 ar
     3    1   32 1
     4    2    3 ar
     5    2   33 1
     6    3    4 ar
     7    3   34 1
     8    4   10 ar
     9    4    5 ar
    10    5    6 ar
    11    5    7 ar
    12    6   35 1
    13    7    8 ar
    14    7   36 1
    15    8    9 ar
    16    8   37 1
    17    9   10 ar
    18    9   38 1
    19   10   11 1
    20   11   12 1
    21   11   31 1
    22   11   39 1
    23   12   17 ar
    24   12   13 ar
    25   13   14 ar
    26   13   40 1
    27   14   15 ar
    28   14   41 1
    29   15   16 ar
    30   15   42 1
    31   16   17 ar
    32   16   18 1
    33   17   43 1
    34   18   19 2
    35   18   29 1
    36   19   20 1
    37   19   21 1
    38   20   44 1
    39   20   45 1
    40   21   22 1
    41   22   27 ar
    42   22   23 ar
    43   23   24 ar
    44   23   46 1
    45   24   25 ar
    46   24   47 1
    47   25   26 ar
    48   25   48 1
    49   26   27 ar
    50   26   49 1
    51   27   28 1
    52   28   50 1
    53   28   51 1
    54   29   30 3
    55   31   52 1
@<TRIPOS>MOLECULE
CHEMBL33906__1
   52    55     0     0     0
SMALL
USER_CHARGES

@<TRIPOS>ATOM
      1 C1         -0.3038    1.5929   -0.1388 C.ar      1 <0>        -0.1152
      2 C2          0.8916    2.3091   -0.1098 C.ar      1 <0>        -0.1113
      3 C3          2.0906    1.6689   -0.0427 C.ar      1 <0>        -0.1105
      4 C4          2.1277    0.2646   -0.0012 C.ar      1 <0>        -0.0359
      5 C5          0.9120   -0.4638   -0.0302 C.ar      1 <0>        -0.0497
      6 C6         -0.3068    0.2326   -0.1003 C.ar      1 <0>        -0.1047
      7 C7          0.9490   -1.8677    0.0117 C.ar      1 <0>        -0.1043
      8 C8          2.1483   -2.5081    0.0794 C.ar      1 <0>        -0.1122
      9 C9          3.3432   -1.7921    0.1083 C.ar      1 <0>        -0.1059
     10 C10         3.3461   -0.4314    0.0688 C.ar      1 <0>        -0.0972
     11 C11         4.6495    0.3244    0.1001 C.3       1 <0>         0.1891
     12 C12         5.0798    0.6423   -1.3087 C.ar      1 <0>        -0.1106
     13 C13         5.6946   -0.3293   -2.0787 C.ar      1 <0>        -0.1018
     14 C14         6.0926   -0.0454   -3.3729 C.ar      1 <0>        -0.1125
     15 C15         5.8784    1.2100   -3.9040 C.ar      1 <0>        -0.0803
     16 C16         5.2586    2.1938   -3.1331 C.ar      1 <0>        -0.0109
     17 C17         4.8547    1.8995   -1.8300 C.ar      1 <0>        -0.0896
     18 C18         5.0257    3.5427   -3.6966 C.2       1 <0>        -0.1216
     19 C19         4.1588    3.7070   -4.7675 C.2       1 <0>         0.2111
     20 N1          3.9429    4.9575   -5.2899 N.pl3     1 <0>        -0.8313
     21 S1          3.3352    2.3101   -5.4567 S.3       1 <0>         0.0456
     22 C20         4.0112    2.1738   -7.0782 C.ar      1 <0>        -0.1953
     23 C21         5.0525    3.0026   -7.4697 C.ar      1 <0>        -0.0759
     24 C22         5.5815    2.8936   -8.7420 C.ar      1 <0>        -0.1601
     25 C23         5.0756    1.9601   -9.6282 C.ar      1 <0>        -0.0636
     26 C24         4.0380    1.1300   -9.2467 C.ar      1 <0>        -0.1831
     27 C25         3.5047    1.2283   -7.9701 C.ar      1 <0>         0.2493
     28 N2          2.4586    0.3853   -7.5799 N.pl3     1 <0>        -0.8698
     29 C26         5.6950    4.6780   -3.1365 C.1       1 <0>         0.2615
     30 N3          6.2260    5.5786   -2.6921 N.1       1 <0>        -0.4292
     31 O1          5.6492   -0.4759    0.7343 O.3       1 <0>        -0.5439
     32 H1         -1.2420    2.1257   -0.1881 H         1 <0>         0.1232
     33 H2          0.8659    3.3884   -0.1416 H         1 <0>         0.1228
     34 H3          3.0088    2.2371   -0.0216 H         1 <0>         0.1250
     35 H4         -1.2409   -0.3090   -0.1230 H         1 <0>         0.1272
     36 H5          0.0307   -2.4358   -0.0093 H         1 <0>         0.1275
     37 H6          2.1739   -3.5873    0.1115 H         1 <0>         0.1251
     38 H7          4.2812   -2.3247    0.1625 H         1 <0>         0.1214
     39 H8          4.5185    1.2517    0.6580 H         1 <0>         0.1164
     40 H9          5.8648   -1.3133   -1.6675 H         1 <0>         0.1181
     41 H10         6.5722   -0.8079   -3.9687 H         1 <0>         0.1259
     42 H11         6.1901    1.4306   -4.9143 H         1 <0>         0.1225
     43 H12         4.3711    2.6557   -1.2294 H         1 <0>         0.1212
     44 H13         4.3381    5.7352   -4.8658 H         1 <0>         0.4035
     45 H14         3.3951    5.0637   -6.0834 H         1 <0>         0.4108
     46 H15         5.4496    3.7332   -6.7806 H         1 <0>         0.1229
     47 H16         6.3921    3.5396   -9.0452 H         1 <0>         0.1240
     48 H17         5.4921    1.8796  -10.6213 H         1 <0>         0.1268
     49 H18         3.6454    0.4022   -9.9413 H         1 <0>         0.1285
     50 H19         2.0843    0.4578   -6.6880 H         1 <0>         0.3994
     51 H20         2.1075   -0.2716   -8.2013 H         1 <0>         0.4038
     52 H21         5.8184   -1.3183    0.2907 H         1 <0>         0.3736
@<TRIPOS>BOND
     1    1    6 ar
     2    1    2 ar
     3    1   32 1
     4    2    3 ar
     5    2   33 1
     6    3    4 ar
     7    3   34 1
     8    4   10 ar
     9    4    5 ar
    10    5    6 ar
    11    5    7 ar
    12    6   35 1
    13    7    8 ar
    14    7   36 1
    15    8    9 ar
    16    8   37 1
    17    9   10 ar
    18    9   38 1
    19   10   11 1
    20   11   12 1
    21   11   31 1
    22   11   39 1
    23   12   17 ar
    24   12   13 ar
    25   13   14 ar
    26   13   40 1
    27   14   15 ar
    28   14   41 1
    29   15   16 ar
    30   15   42 1
    31   16   17 ar
    32   16   18 1
    33   17   43 1
    34   18   19 2
    35   18   29 1
    36   19   20 1
    37   19   21 1
    38   20   44 1
    39   20   45 1
    40   21   22 1
    41   22   27 ar
    42   22   23 ar
    43   23   24 ar
    44   23   46 1
    45   24   25 ar
    46   24   47 1
    47   25   26 ar
    48   25   48 1
    49   26   27 ar
    50   26   49 1
    51   27   28 1
    52   28   50 1
    53   28   51 1
    54   29   30 3
    55   31   52 1
@<TRIPOS>MOLECULE
CHEMBL33906__2
   52    55     0     0     0
SMALL
USER_CHARGES

@<TRIPOS>ATOM
      1 C1         -0.1127    1.0315    0.4718 C.ar      1 <0>        -0.1141
      2 C2          1.0322    1.8201    0.3714 C.ar      1 <0>        -0.1065
      3 C3          2.2668    1.2547    0.2816 C.ar      1 <0>        -0.1150
      4 C4          2.3929   -0.1451    0.2904 C.ar      1 <0>        -0.0361
      5 C5          1.2286   -0.9470    0.3930 C.ar      1 <0>        -0.0510
      6 C6         -0.0294   -0.3267    0.4834 C.ar      1 <0>        -0.1039
      7 C7          1.3546   -2.3463    0.4023 C.ar      1 <0>        -0.1014
      8 C8          2.5896   -2.9119    0.3129 C.ar      1 <0>        -0.1145
      9 C9          3.7341   -2.1237    0.2125 C.ar      1 <0>        -0.1045
     10 C10         3.6505   -0.7650    0.2000 C.ar      1 <0>        -0.1018
     11 C11         4.9003    0.0698    0.0897 C.3       1 <0>         0.1895
     12 C12         5.3596    0.4710    1.4678 C.ar      1 <0>        -0.1050
     13 C13         6.1607   -0.3837    2.2046 C.ar      1 <0>        -0.1047
     14 C14         6.5865   -0.0228    3.4704 C.ar      1 <0>        -0.1089
     15 C15         6.2144    1.1931    4.0062 C.ar      1 <0>        -0.1111
     16 C16         5.4073    2.0595    3.2683 C.ar      1 <0>        -0.0165
     17 C17         4.9853    1.6917    1.9898 C.ar      1 <0>        -0.0897
     18 C18         5.0043    3.3654    3.8369 C.2       1 <0>        -0.1208
     19 C19         5.9630    4.3341    4.0975 C.2       1 <0>         0.2159
     20 N1          7.2846    4.0816    3.8280 N.pl3     1 <0>        -0.8257
     21 S1          5.4833    5.8886    4.7744 S.3       1 <0>         0.0177
     22 C20         5.8395    7.0410    3.4900 C.ar      1 <0>        -0.1922
     23 C21         6.2662    6.5902    2.2494 C.ar      1 <0>        -0.0733
     24 C22         6.5445    7.4960    1.2432 C.ar      1 <0>        -0.1605
     25 C23         6.3996    8.8527    1.4689 C.ar      1 <0>        -0.0632
     26 C24         5.9750    9.3112    2.7021 C.ar      1 <0>        -0.1836
     27 C25         5.6878    8.4093    3.7158 C.ar      1 <0>         0.2482
     28 N2          5.2524    8.8706    4.9628 N.pl3     1 <0>        -0.8701
     29 C26         3.6252    3.6289    4.1182 C.1       1 <0>         0.2686
     30 N3          2.5311    3.8380    4.3413 N.1       1 <0>        -0.4215
     31 O1          5.9261   -0.6908   -0.5516 O.3       1 <0>        -0.5434
     32 H1         -1.0803    1.5057    0.5460 H         1 <0>         0.1244
     33 H2          0.9381    2.8959    0.3644 H         1 <0>         0.1236
     34 H3          3.1451    1.8784    0.2036 H         1 <0>         0.1248
     35 H4         -0.9252   -0.9249    0.5621 H         1 <0>         0.1282
     36 H5          0.4763   -2.9699    0.4803 H         1 <0>         0.1284
     37 H6          2.6837   -3.9878    0.3203 H         1 <0>         0.1258
     38 H7          4.7020   -2.5977    0.1432 H         1 <0>         0.1213
     39 H8          4.6896    0.9635   -0.4976 H         1 <0>         0.1187
     40 H9          6.4544   -1.3366    1.7899 H         1 <0>         0.1210
     41 H10         7.2113   -0.6943    4.0406 H         1 <0>         0.1287
     42 H11         6.5469    1.4734    4.9948 H         1 <0>         0.1275
     43 H12         4.3635    2.3596    1.4121 H         1 <0>         0.1256
     44 H13         7.5577    3.2029    3.5208 H         1 <0>         0.4073
     45 H14         7.9458    4.7817    3.9447 H         1 <0>         0.4100
     46 H15         6.3812    5.5314    2.0699 H         1 <0>         0.1250
     47 H16         6.8766    7.1433    0.2780 H         1 <0>         0.1252
     48 H17         6.6192    9.5562    0.6794 H         1 <0>         0.1274
     49 H18         5.8630   10.3714    2.8747 H         1 <0>         0.1288
     50 H19         5.0554    8.2388    5.6719 H         1 <0>         0.3992
     51 H20         5.1474    9.8223    5.1182 H         1 <0>         0.4040
     52 H21         6.1653   -1.5022   -0.0832 H         1 <0>         0.3738
@<TRIPOS>BOND
     1    1    6 ar
     2    1    2 ar
     3    1   32 1
     4    2    3 ar
     5    2   33 1
     6    3    4 ar
     7    3   34 1
     8    4   10 ar
     9    4    5 ar
    10    5    6 ar
    11    5    7 ar
    12    6   35 1
    13    7    8 ar
    14    7   36 1
    15    8    9 ar
    16    8   37 1
    17    9   10 ar
    18    9   38 1
    19   10   11 1
    20   11   12 1
    21   11   31 1
    22   11   39 1
    23   12   17 ar
    24   12   13 ar
    25   13   14 ar
    26   13   40 1
    27   14   15 ar
    28   14   41 1
    29   15   16 ar
    30   15   42 1
    31   16   17 ar
    32   16   18 1
    33   17   43 1
    34   18   19 2
    35   18   29 1
    36   19   20 1
    37   19   21 1
    38   20   44 1
    39   20   45 1
    40   21   22 1
    41   22   27 ar
    42   22   23 ar
    43   23   24 ar
    44   23   46 1
    45   24   25 ar
    46   24   47 1
    47   25   26 ar
    48   25   48 1
    49   26   27 ar
    50   26   49 1
    51   27   28 1
    52   28   50 1
    53   28   51 1
    54   29   30 3
    55   31   52 1
@<TRIPOS>MOLECULE
CHEMBL33906__3
   52    55     0     0     0
SMALL
USER_CHARGES

@<TRIPOS>ATOM
      1 C1         -0.0019    1.7303   -0.2449 C.ar      1 <0>        -0.1149
      2 C2          1.1959    2.4410   -0.1922 C.ar      1 <0>        -0.1091
      3 C3          2.3946    1.7976   -0.2262 C.ar      1 <0>        -0.1135
      4 C4          2.4289    0.3954   -0.3152 C.ar      1 <0>        -0.0363
      5 C5          1.2107   -0.3275   -0.3683 C.ar      1 <0>        -0.0507
      6 C6         -0.0077    0.3722   -0.3314 C.ar      1 <0>        -0.1043
      7 C7          1.2449   -1.7293   -0.4569 C.ar      1 <0>        -0.1033
      8 C8          2.4439   -2.3729   -0.4904 C.ar      1 <0>        -0.1133
      9 C9          3.6413   -1.6624   -0.4377 C.ar      1 <0>        -0.1052
     10 C10         3.6469   -0.3039   -0.3521 C.ar      1 <0>        -0.0994
     11 C11         4.9529    0.4462   -0.2973 C.3       1 <0>         0.1903
     12 C12         5.3181    0.7144    1.1400 C.ar      1 <0>        -0.1106
     13 C13         5.9967   -0.2453    1.8705 C.ar      1 <0>        -0.1023
     14 C14         6.3357   -0.0068    3.1904 C.ar      1 <0>        -0.1125
     15 C15         5.9985    1.1909    3.7868 C.ar      1 <0>        -0.0808
     16 C16         5.3148    2.1627    3.0556 C.ar      1 <0>        -0.0108
     17 C17         4.9804    1.9181    1.7229 C.ar      1 <0>        -0.0911
     18 C18         4.9500    3.4498    3.6891 C.2       1 <0>        -0.1212
     19 C19         5.9435    4.3273    4.0996 C.2       1 <0>         0.2103
     20 N1          5.6054    5.5205    4.6869 N.pl3     1 <0>        -0.8314
     21 S1          7.6393    3.9094    3.8666 S.3       1 <0>         0.0449
     22 C20         8.2617    3.7243    5.5046 C.ar      1 <0>        -0.1951
     23 C21         7.3995    3.7977    6.5889 C.ar      1 <0>        -0.0758
     24 C22         7.8899    3.6518    7.8729 C.ar      1 <0>        -0.1603
     25 C23         9.2393    3.4328    8.0814 C.ar      1 <0>        -0.0635
     26 C24        10.1060    3.3580    7.0070 C.ar      1 <0>        -0.1831
     27 C25         9.6221    3.4976    5.7147 C.ar      1 <0>         0.2494
     28 N2         10.4964    3.4166    4.6255 N.pl3     1 <0>        -0.8696
     29 C26         3.5718    3.7895    3.8785 C.1       1 <0>         0.2607
     30 N3          2.4785    4.0589    4.0287 N.1       1 <0>        -0.4277
     31 O1          5.9783   -0.3372   -0.9112 O.3       1 <0>        -0.5437
     32 H1         -0.9396    2.2651   -0.2121 H         1 <0>         0.1236
     33 H2          1.1724    3.5186   -0.1237 H         1 <0>         0.1223
     34 H3          3.3147    2.3616   -0.1852 H         1 <0>         0.1256
     35 H4         -0.9437   -0.1652   -0.3711 H         1 <0>         0.1277
     36 H5          0.3247   -2.2932   -0.4978 H         1 <0>         0.1279
     37 H6          2.4674   -3.4505   -0.5585 H         1 <0>         0.1255
     38 H7          4.5790   -2.1975   -0.4656 H         1 <0>         0.1218
     39 H8          4.8511    1.3923   -0.8289 H         1 <0>         0.1175
     40 H9          6.2625   -1.1845    1.4084 H         1 <0>         0.1186
     41 H10         6.8649   -0.7599    3.7553 H         1 <0>         0.1259
     42 H11         6.2631    1.3756    4.8175 H         1 <0>         0.1224
     43 H12         4.4544    2.6678    1.1505 H         1 <0>         0.1218
     44 H13         4.6738    5.7837    4.7491 H         1 <0>         0.4035
     45 H14         6.2979    6.1008    5.0399 H         1 <0>         0.4108
     46 H15         6.3451    3.9694    6.4298 H         1 <0>         0.1227
     47 H16         7.2172    3.7093    8.7158 H         1 <0>         0.1239
     48 H17         9.6174    3.3201    9.0868 H         1 <0>         0.1268
     49 H18        11.1593    3.1869    7.1736 H         1 <0>         0.1286
     50 H19        10.1569    3.5180    3.7225 H         1 <0>         0.3997
     51 H20        11.4420    3.2589    4.7733 H         1 <0>         0.4040
     52 H21         6.1239   -1.1949   -0.4890 H         1 <0>         0.3735
@<TRIPOS>BOND
     1    1    6 ar
     2    1    2 ar
     3    1   32 1
     4    2    3 ar
     5    2   33 1
     6    3    4 ar
     7    3   34 1
     8    4   10 ar
     9    4    5 ar
    10    5    6 ar
    11    5    7 ar
    12    6   35 1
    13    7    8 ar
    14    7   36 1
    15    8    9 ar
    16    8   37 1
    17    9   10 ar
    18    9   38 1
    19   10   11 1
    20   11   12 1
    21   11   31 1
    22   11   39 1
    23   12   17 ar
    24   12   13 ar
    25   13   14 ar
    26   13   40 1
    27   14   15 ar
    28   14   41 1
    29   15   16 ar
    30   15   42 1
    31   16   17 ar
    32   16   18 1
    33   17   43 1
    34   18   19 2
    35   18   29 1
    36   19   20 1
    37   19   21 1
    38   20   44 1
    39   20   45 1
    40   21   22 1
    41   22   27 ar
    42   22   23 ar
    43   23   24 ar
    44   23   46 1
    45   24   25 ar
    46   24   47 1
    47   25   26 ar
    48   25   48 1
    49   26   27 ar
    50   26   49 1
    51   27   28 1
    52   28   50 1
    53   28   51 1
    54   29   30 3
    55   31   52 1
@<TRIPOS>MOLECULE
CHEMBL103045
   76    80     0     0     0
SMALL
USER_CHARGES

@<TRIPOS>ATOM
      1 C1         -9.9115    0.6779  -10.1785 C.3       1 <0>        -0.1893
      2 C2        -10.0785   -0.8408  -10.0967 C.3       1 <0>        -0.0096
      3 N1        -10.3177   -1.2326   -8.7012 N.4       1 <0>        -0.3878
      4 C3         -9.1278   -0.9269   -7.8962 C.3       1 <0>        -0.0061
      5 C4         -9.3834   -1.3176   -6.4389 C.3       1 <0>         0.0266
      6 N2         -9.6898   -2.7532   -6.3661 N.3       1 <0>        -0.5379
      7 C5        -10.8644   -3.0785   -7.1873 C.3       1 <0>         0.0195
      8 C6        -10.5966   -2.6734   -8.6385 C.3       1 <0>        -0.0020
      9 C7         -9.8861   -3.1796   -4.9741 C.3       1 <0>         0.0580
     10 C8         -9.9542   -4.7069   -4.9133 C.3       1 <0>        -0.1177
     11 C9        -10.1587   -5.1510   -3.4636 C.3       1 <0>         0.0532
     12 O1        -10.2222   -6.5774   -3.4068 O.3       1 <0>        -0.2938
     13 C10       -10.4022   -7.1386   -2.1828 C.ar      1 <0>         0.1550
     14 C11       -10.5192   -6.3311   -1.0742 C.ar      1 <0>        -0.1743
     15 C12       -10.7052   -6.9083    0.1912 C.ar      1 <0>         0.1643
     16 C13       -10.7694   -8.3182    0.3037 C.ar      1 <0>        -0.0958
     17 C14       -10.6478   -9.1182   -0.8418 C.ar      1 <0>        -0.1550
     18 C15       -10.4726   -8.5334   -2.0630 C.ar      1 <0>         0.1274
     19 O2        -10.3606   -9.3113   -3.1727 O.3       1 <0>        -0.3001
     20 C16       -10.4406  -10.7256   -2.9843 C.3       1 <0>         0.0216
     21 C17       -10.9569   -8.8970    1.5805 C.ar      1 <0>         0.2606
     22 C18       -11.0708   -8.0332    2.6806 C.ar      1 <0>        -0.0798
     23 C19       -10.9953   -6.6461    2.4757 C.ar      1 <0>         0.1817
     24 N3        -10.8216   -6.1375    1.2827 N.ar      1 <0>        -0.4624
     25 C20       -11.2624   -8.5607    3.9980 C.1       1 <0>         0.2476
     26 N4        -11.4144   -8.9792    5.0431 N.1       1 <0>        -0.3842
     27 N5        -11.0262  -10.2663    1.7392 N.pl3     1 <0>        -0.6998
     28 C21       -12.2502  -10.9273    1.5867 C.ar      1 <0>         0.2465
     29 C22       -13.3653  -10.2297    1.1393 C.ar      1 <0>        -0.1874
     30 C23       -14.5730  -10.8811    0.9891 C.ar      1 <0>         0.0018
     31 C24       -14.6738  -12.2346    1.2847 C.ar      1 <0>        -0.1665
     32 C25       -13.5582  -12.9332    1.7320 C.ar      1 <0>         0.0712
     33 C26       -12.3486  -12.2820    1.8771 C.ar      1 <0>        -0.1801
     34 Cl1       -13.6836  -14.6247    2.1016 Cl        1 <0>        -0.0380
     35 S1        -16.2156  -13.0658    1.0935 S.3       1 <0>         0.0934
     36 C27       -16.0099  -14.0123   -0.3784 C.2       1 <0>         0.1757
     37 N6        -14.9637  -13.9825   -1.1706 N.2       1 <0>        -0.4787
     38 C28       -15.1559  -14.8332   -2.1923 C.2       1 <0>        -0.0212
     39 C29       -16.3578  -15.4148   -2.0382 C.2       1 <0>        -0.0452
     40 N7        -16.9065  -14.9031   -0.8843 N.pl3     1 <0>        -0.4469
     41 C30       -18.2096  -15.2489   -0.3110 C.3       1 <0>         0.0685
     42 H1         -9.7340    0.9686  -11.2139 H         1 <0>         0.1071
     43 H2        -10.8174    1.1631   -9.8151 H         1 <0>         0.0798
     44 H3         -9.0642    0.9838   -9.5648 H         1 <0>         0.0804
     45 H4        -10.9258   -1.1467  -10.7103 H         1 <0>         0.1307
     46 H5         -9.1726   -1.3260  -10.4601 H         1 <0>         0.1302
     47 H6         -8.2760   -1.4891   -8.2790 H         1 <0>         0.1381
     48 H7         -8.9143    0.1404   -7.9542 H         1 <0>         0.1370
     49 H8         -8.4951   -1.1046   -5.8442 H         1 <0>         0.1247
     50 H9        -10.2266   -0.7456   -6.0516 H         1 <0>         0.0615
     51 H10       -11.0567   -4.1503   -7.1386 H         1 <0>         0.1270
     52 H11       -11.7320   -2.5356   -6.8124 H         1 <0>         0.0620
     53 H12       -11.4720   -2.9008   -9.2467 H         1 <0>         0.1359
     54 H13        -9.7373   -3.2266   -9.0175 H         1 <0>         0.1382
     55 H14        -9.0528   -2.8285   -4.3656 H         1 <0>         0.0941
     56 H15       -10.8168   -2.7590   -4.5931 H         1 <0>         0.0520
     57 H16       -10.7875   -5.0579   -5.5219 H         1 <0>         0.0767
     58 H17        -9.0235   -5.1274   -5.2943 H         1 <0>         0.0902
     59 H18        -9.3253   -4.7999   -2.8550 H         1 <0>         0.0722
     60 H19       -11.0893   -4.7304   -3.0826 H         1 <0>         0.0689
     61 H20       -10.4676   -5.2573   -1.1778 H         1 <0>         0.1544
     62 H21       -10.6961  -10.1939   -0.7586 H         1 <0>         0.1501
     63 H22       -10.3366  -11.2268   -3.9466 H         1 <0>         0.1078
     64 H23        -9.6411  -11.0491   -2.3178 H         1 <0>         0.0593
     65 H24       -11.4051  -10.9796   -2.5448 H         1 <0>         0.0629
     66 H25       -11.0831   -5.9829    3.3235 H         1 <0>         0.1760
     67 H26       -10.2265  -10.7704    1.9565 H         1 <0>         0.4220
     68 H27       -13.2872   -9.1774    0.9094 H         1 <0>         0.1315
     69 H28       -15.4397  -10.3382    0.6420 H         1 <0>         0.1437
     70 H29       -11.4806  -12.8253    2.2204 H         1 <0>         0.1417
     71 H30       -14.4631  -15.0180   -2.9999 H         1 <0>         0.1706
     72 H31       -16.8061  -16.1472   -2.6932 H         1 <0>         0.1779
     73 H32       -18.9722  -14.5827   -0.7142 H         1 <0>         0.0813
     74 H33       -18.4563  -16.2797   -0.5653 H         1 <0>         0.0916
     75 H34       -18.1696  -15.1417    0.7730 H         1 <0>         0.0898
     76 H35       -11.1086   -0.7211   -8.3393 H         1 <0>         0.4199
@<TRIPOS>BOND
     1    1    2 1
     2    1   42 1
     3    1   43 1
     4    1   44 1
     5    2    3 1
     6    2   45 1
     7    2   46 1
     8    3    8 1
     9    3    4 1
    10    3   76 1
    11    4    5 1
    12    4   47 1
    13    4   48 1
    14    5    6 1
    15    5   49 1
    16    5   50 1
    17    6    7 1
    18    6    9 1
    19    7    8 1
    20    7   51 1
    21    7   52 1
    22    8   53 1
    23    8   54 1
    24    9   10 1
    25    9   55 1
    26    9   56 1
    27   10   11 1
    28   10   57 1
    29   10   58 1
    30   11   12 1
    31   11   59 1
    32   11   60 1
    33   12   13 1
    34   13   18 ar
    35   13   14 ar
    36   14   15 ar
    37   14   61 1
    38   15   24 ar
    39   15   16 ar
    40   16   17 ar
    41   16   21 ar
    42   17   18 ar
    43   17   62 1
    44   18   19 1
    45   19   20 1
    46   20   63 1
    47   20   64 1
    48   20   65 1
    49   21   22 ar
    50   21   27 1
    51   22   23 ar
    52   22   25 1
    53   23   24 ar
    54   23   66 1
    55   25   26 3
    56   27   28 1
    57   27   67 1
    58   28   33 ar
    59   28   29 ar
    60   29   30 ar
    61   29   68 1
    62   30   31 ar
    63   30   69 1
    64   31   32 ar
    65   31   35 1
    66   32   33 ar
    67   32   34 1
    68   33   70 1
    69   35   36 1
    70   36   40 1
    71   36   37 2
    72   37   38 1
    73   38   39 2
    74   38   71 1
    75   39   40 1
    76   39   72 1
    77   40   41 1
    78   41   73 1
    79   41   74 1
    80   41   75 1
@<TRIPOS>MOLECULE
CHEMBL103045__1
   76    80     0     0     0
SMALL
USER_CHARGES

@<TRIPOS>ATOM
      1 C1         -3.6100    2.3740   13.5930 C.3       1 <0>        -0.1556
      2 C2         -3.6846    0.8502   13.7076 C.3       1 <0>         0.0501
      3 N1         -2.4286    0.2608   13.2250 N.3       1 <0>        -0.5404
      4 C3         -2.2592    0.4898   11.7831 C.3       1 <0>         0.0211
      5 C4         -0.9147   -0.0858   11.3328 C.3       1 <0>        -0.0013
      6 N2         -0.8751   -1.5246   11.6254 N.4       1 <0>        -0.3853
      7 C5         -1.0209   -1.7361   13.0717 C.3       1 <0>        -0.0079
      8 C6         -2.3662   -1.1742   13.5365 C.3       1 <0>         0.0255
      9 C7          0.4085   -2.0802   11.1765 C.3       1 <0>        -0.0051
     10 C8          0.4016   -3.5983   11.3667 C.3       1 <0>        -0.1503
     11 C9          1.7386   -4.1770   10.8992 C.3       1 <0>         0.0564
     12 O1          1.7321   -5.5949   11.0768 O.3       1 <0>        -0.2936
     13 C10         2.8532   -6.2678   10.7080 C.ar      1 <0>         0.1502
     14 C11         3.9261   -5.5741   10.1959 C.ar      1 <0>        -0.1700
     15 C12         5.0851   -6.2669    9.8143 C.ar      1 <0>         0.1618
     16 C13         5.1287   -7.6741    9.9641 C.ar      1 <0>        -0.0940
     17 C14         4.0216   -8.3568   10.4889 C.ar      1 <0>        -0.1516
     18 C15         2.9069   -7.6604   10.8582 C.ar      1 <0>         0.1268
     19 O2          1.8371   -8.3243   11.3719 O.3       1 <0>        -0.3015
     20 C16         1.9542   -9.7428   11.4998 C.3       1 <0>         0.0212
     21 C17         6.2983   -8.3696    9.5785 C.ar      1 <0>         0.2616
     22 C18         7.3657   -7.6193    9.0620 C.ar      1 <0>        -0.0757
     23 C19         7.2348   -6.2258    8.9487 C.ar      1 <0>         0.1838
     24 N3          6.1407   -5.6078    9.3138 N.ar      1 <0>        -0.4627
     25 C20         8.5759   -8.2678    8.6551 C.1       1 <0>         0.2450
     26 N4          9.5359   -8.7822    8.3323 N.1       1 <0>        -0.3799
     27 N5          6.3870   -9.7409    9.7065 N.pl3     1 <0>        -0.7008
     28 C21         6.8073  -10.3050   10.9162 C.ar      1 <0>         0.2449
     29 C22         7.0003   -9.4967   12.0295 C.ar      1 <0>        -0.1877
     30 C23         7.4153  -10.0524   13.2229 C.ar      1 <0>         0.0017
     31 C24         7.6398  -11.4205   13.3114 C.ar      1 <0>        -0.1654
     32 C25         7.4464  -12.2298   12.1978 C.ar      1 <0>         0.0710
     33 C26         7.0260  -11.6738   11.0051 C.ar      1 <0>        -0.1794
     34 Cl1         7.7268  -13.9395   12.3077 Cl        1 <0>        -0.0368
     35 S1          8.1701  -12.1297   14.8347 S.3       1 <0>         0.0943
     36 C27         6.7287  -12.9291   15.4574 C.2       1 <0>         0.1751
     37 N6          5.5319  -12.8825   14.9200 N.2       1 <0>        -0.4793
     38 C28         4.6821  -13.6088   15.6647 C.2       1 <0>        -0.0215
     39 C29         5.3641  -14.1273   16.7004 C.2       1 <0>        -0.0444
     40 N7          6.6680  -13.7050   16.5743 N.pl3     1 <0>        -0.4464
     41 C30         7.7790  -14.0267   17.4734 C.3       1 <0>         0.0681
     42 H1         -3.4548    2.6528   12.5508 H         1 <0>         0.0559
     43 H2         -4.5420    2.8114   13.9511 H         1 <0>         0.0715
     44 H3         -2.7802    2.7436   14.1954 H         1 <0>         0.0692
     45 H4         -3.8399    0.5714   14.7499 H         1 <0>         0.0890
     46 H5         -4.5144    0.4806   13.1052 H         1 <0>         0.0462
     47 H6         -3.0658   -0.0021   11.2395 H         1 <0>         0.0606
     48 H7         -2.2830    1.5604   11.5796 H         1 <0>         0.1264
     49 H8         -0.7933    0.0704   10.2609 H         1 <0>         0.1368
     50 H9         -0.1076    0.4159   11.8667 H         1 <0>         0.1390
     51 H10        -0.9783   -2.8033   13.2889 H         1 <0>         0.1378
     52 H11        -0.2132   -1.2259   13.5966 H         1 <0>         0.1395
     53 H12        -2.4682   -1.3177   14.6122 H         1 <0>         0.1240
     54 H13        -3.1746   -1.6936   13.0217 H         1 <0>         0.0606
     55 H14         0.5567   -1.8468   10.1222 H         1 <0>         0.1368
     56 H15         1.2178   -1.6443   11.7623 H         1 <0>         0.1364
     57 H16         0.2535   -3.8317   12.4211 H         1 <0>         0.1007
     58 H17        -0.4077   -4.0342   10.7809 H         1 <0>         0.1002
     59 H18         1.8867   -3.9436    9.8448 H         1 <0>         0.0787
     60 H19         2.5479   -3.7411   11.4850 H         1 <0>         0.0791
     61 H20         3.8760   -4.5007   10.0880 H         1 <0>         0.1541
     62 H21         4.0522   -9.4302   10.6039 H         1 <0>         0.1514
     63 H22         2.1282  -10.1830   10.5179 H         1 <0>         0.0601
     64 H23         2.7900   -9.9805   12.1578 H         1 <0>         0.0641
     65 H24         1.0337  -10.1468   11.9211 H         1 <0>         0.1089
     66 H25         8.0574   -5.6500    8.5510 H         1 <0>         0.1775
     67 H26         6.1581  -10.3137    8.9579 H         1 <0>         0.4224
     68 H27         6.8259   -8.4331   11.9611 H         1 <0>         0.1309
     69 H28         7.5659   -9.4235   14.0879 H         1 <0>         0.1441
     70 H29         6.8714  -12.3028   10.1409 H         1 <0>         0.1419
     71 H30         3.6303  -13.7516   15.4654 H         1 <0>         0.1706
     72 H31         4.9655  -14.7584   17.4810 H         1 <0>         0.1782
     73 H32         7.8377  -13.2760   18.2615 H         1 <0>         0.0817
     74 H33         7.6142  -15.0082   17.9180 H         1 <0>         0.0920
     75 H34         8.7119  -14.0353   16.9096 H         1 <0>         0.0899
     76 H35        -1.6294   -1.9871   11.1404 H         1 <0>         0.4218
@<TRIPOS>BOND
     1    1    2 1
     2    1   42 1
     3    1   43 1
     4    1   44 1
     5    2    3 1
     6    2   45 1
     7    2   46 1
     8    3    8 1
     9    3    4 1
    10    4    5 1
    11    4   47 1
    12    4   48 1
    13    5    6 1
    14    5   49 1
    15    5   50 1
    16    6    7 1
    17    6    9 1
    18    6   76 1
    19    7    8 1
    20    7   51 1
    21    7   52 1
    22    8   53 1
    23    8   54 1
    24    9   10 1
    25    9   55 1
    26    9   56 1
    27   10   11 1
    28   10   57 1
    29   10   58 1
    30   11   12 1
    31   11   59 1
    32   11   60 1
    33   12   13 1
    34   13   18 ar
    35   13   14 ar
    36   14   15 ar
    37   14   61 1
    38   15   24 ar
    39   15   16 ar
    40   16   17 ar
    41   16   21 ar
    42   17   18 ar
    43   17   62 1
    44   18   19 1
    45   19   20 1
    46   20   63 1
    47   20   64 1
    48   20   65 1
    49   21   22 ar
    50   21   27 1
    51   22   23 ar
    52   22   25 1
    53   23   24 ar
    54   23   66 1
    55   25   26 3
    56   27   28 1
    57   27   67 1
    58   28   33 ar
    59   28   29 ar
    60   29   30 ar
    61   29   68 1
    62   30   31 ar
    63   30   69 1
    64   31   32 ar
    65   31   35 1
    66   32   33 ar
    67   32   34 1
    68   33   70 1
    69   35   36 1
    70   36   40 1
    71   36   37 2
    72   37   38 1
    73   38   39 2
    74   38   71 1
    75   39   40 1
    76   39   72 1
    77   40   41 1
    78   41   73 1
    79   41   74 1
    80   41   75 1
@<TRIPOS>MOLECULE
CHEMBL359106
   28    30     0     0     0
SMALL
USER_CHARGES

@<TRIPOS>ATOM
      1 C1         -0.0163    1.3518    0.0095 C.2       1 <0>        -0.0884
      2 C2          1.3148    1.7902   -0.0009 C.2       1 <0>        -0.0166
      3 C3          2.1177    0.6382   -0.0541 C.2       1 <0>        -0.0383
      4 N1          1.2938   -0.4402   -0.0184 N.pl3     1 <0>        -0.4987
      5 H1          1.5772   -1.3679   -0.0093 H         1 <0>         0.4194
      6 C4          0.0021   -0.0041    0.0020 C.2       1 <0>         0.0130
      7 Br1        -1.5265   -1.1172    0.0181 Br        1 <0>        -0.0048
      8 C5          3.5766    0.7389   -0.1870 C.2       1 <0>         0.6103
      9 O1          4.1929    0.0169   -0.9490 O.2       1 <0>        -0.5364
     10 N2          4.2121    1.6686    0.5723 N.am      1 <0>        -0.7165
     11 C6          3.5429    2.2863    1.7070 C.3       1 <0>         0.1190
     12 C7          2.6757    3.4872    1.3174 C.3       1 <0>        -0.0809
     13 C8          1.8765    3.1423    0.0746 C.2       1 <0>        -0.1219
     14 C9          1.6898    4.0463   -0.9242 C.2       1 <0>         0.1025
     15 C10         0.9392    3.8532   -2.1718 C.2       1 <0>         0.4624
     16 O2          0.2923    2.7286   -2.5526 O.3       1 <0>        -0.6219
     17 N3          1.0129    4.9787   -2.8495 N.2       1 <0>        -0.6250
     18 C11         1.7333    5.8883   -2.1759 C.2       1 <0>         0.5797
     19 N4          2.1661    5.3590   -0.9796 N.pl3     1 <0>        -0.7329
     20 N5          1.9843    7.1064   -2.5930 N.2       1 <0>        -0.7932
     21 H2         -0.8955    1.9789    0.0252 H         1 <0>         0.1491
     22 H3          5.1227    1.9234    0.3559 H         1 <0>         0.4037
     23 H4          2.9112    1.5403    2.1892 H         1 <0>         0.0749
     24 H5          4.2974    2.6164    2.4210 H         1 <0>         0.0814
     25 H6          1.9946    3.7249    2.1345 H         1 <0>         0.0835
     26 H7          3.3144    4.3465    1.1128 H         1 <0>         0.0632
     27 H8          2.5153    7.7065   -2.0463 H         1 <0>         0.3143
     28 H9          2.6998    5.8098   -0.3066 H         1 <0>         0.3994
@<TRIPOS>BOND
     1    1    6 2
     2    1    2 1
     3    1   21 1
     4    2   13 1
     5    2    3 2
     6    3    4 1
     7    3    8 1
     8    4    5 1
     9    4    6 1
    10    6    7 1
    11    8    9 2
    12    8   10 am
    13   10   11 1
    14   10   22 1
    15   11   12 1
    16   11   23 1
    17   11   24 1
    18   12   13 1
    19   12   25 1
    20   12   26 1
    21   13   14 2
    22   14   19 1
    23   14   15 1
    24   15   16 1
    25   15   17 2
    26   17   18 1
    27   18   19 1
    28   18   20 2
    29   19   28 1
    30   20   27 1
@<TRIPOS>MOLECULE
CHEMBL359106__1
   28    30     0     0     0
SMALL
USER_CHARGES

@<TRIPOS>ATOM
      1 C1         -0.0163    1.3522    0.0095 C.2       1 <0>        -0.0983
      2 C2          1.3145    1.7899   -0.0009 C.2       1 <0>        -0.0189
      3 C3          2.1168    0.6384   -0.0541 C.2       1 <0>        -0.0368
      4 N1          1.2937   -0.4395   -0.0184 N.pl3     1 <0>        -0.4973
      5 H1          1.5775   -1.3670   -0.0089 H         1 <0>         0.4202
      6 C4          0.0021   -0.0041    0.0020 C.2       1 <0>         0.0129
      7 Br1        -1.5262   -1.1176    0.0181 Br        1 <0>        -0.0030
      8 C5          3.5767    0.7391   -0.1874 C.2       1 <0>         0.6096
      9 O1          4.1928    0.0172   -0.9493 O.2       1 <0>        -0.5368
     10 N2          4.2125    1.6688    0.5718 N.am      1 <0>        -0.7148
     11 C6          3.5436    2.2865    1.7066 C.3       1 <0>         0.1186
     12 C7          2.6766    3.4877    1.3173 C.3       1 <0>        -0.0808
     13 C8          1.8770    3.1431    0.0747 C.2       1 <0>        -0.1306
     14 C9          1.6904    4.0451   -0.9215 C.2       1 <0>         0.0830
     15 C10         0.9363    3.8581   -2.1778 C.2       1 <0>         0.5087
     16 O2          0.3478    2.8508   -2.5352 O.2       1 <0>        -0.5423
     17 N3          1.0276    5.0160   -2.8462 N.2       1 <0>        -0.7196
     18 C11         1.7387    5.8869   -2.1633 C.2       1 <0>         0.5696
     19 N4          2.1642    5.3588   -0.9829 N.pl3     1 <0>        -0.6730
     20 N5          2.0107    7.1602   -2.5824 N.2       1 <0>        -0.8577
     21 H2         -0.8954    1.9794    0.0253 H         1 <0>         0.1497
     22 H3          5.1230    1.9236    0.3550 H         1 <0>         0.4047
     23 H4          2.9118    1.5406    2.1889 H         1 <0>         0.0739
     24 H5          4.2983    2.6165    2.4205 H         1 <0>         0.0821
     25 H6          1.9957    3.7255    2.1345 H         1 <0>         0.0832
     26 H7          3.3154    4.3469    1.1126 H         1 <0>         0.0659
     27 H8          1.6708    7.4730   -3.4354 H         1 <0>         0.3214
     28 H9          2.6983    5.8097   -0.3104 H         1 <0>         0.4064
@<TRIPOS>BOND
     1    1    6 2
     2    1    2 1
     3    1   21 1
     4    2   13 1
     5    2    3 2
     6    3    4 1
     7    3    8 1
     8    4    5 1
     9    4    6 1
    10    6    7 1
    11    8    9 2
    12    8   10 am
    13   10   11 1
    14   10   22 1
    15   11   12 1
    16   11   23 1
    17   11   24 1
    18   12   13 1
    19   12   25 1
    20   12   26 1
    21   13   14 2
    22   14   19 1
    23   14   15 1
    24   15   16 2
    25   15   17 1
    26   17   18 2
    27   18   19 1
    28   18   20 1
    29   19   28 1
    30   20   27 1
@<TRIPOS>MOLECULE
CHEMBL359106__2
   29    31     0     0     0
SMALL
USER_CHARGES

@<TRIPOS>ATOM
      1 C1         -0.0163    1.3522    0.0095 C.2       1 <0>        -0.0939
      2 C2          1.3145    1.7899   -0.0009 C.2       1 <0>        -0.0817
      3 C3          2.1168    0.6384   -0.0541 C.2       1 <0>        -0.0085
      4 N1          1.2937   -0.4395   -0.0184 N.pl3     1 <0>        -0.4867
      5 H1          1.5775   -1.3670   -0.0089 H         1 <0>         0.4287
      6 C4          0.0021   -0.0041    0.0020 C.2       1 <0>         0.0190
      7 Br1        -1.5262   -1.1176    0.0181 Br        1 <0>         0.0181
      8 C5          3.5767    0.7391   -0.1874 C.2       1 <0>         0.6011
      9 O1          4.1928    0.0172   -0.9493 O.2       1 <0>        -0.5178
     10 N2          4.2125    1.6688    0.5718 N.am      1 <0>        -0.7188
     11 C6          3.5436    2.2865    1.7066 C.3       1 <0>         0.1140
     12 C7          2.6766    3.4877    1.3173 C.3       1 <0>        -0.1023
     13 C8          1.8770    3.1431    0.0747 C.2       1 <0>         0.0104
     14 C9          1.6904    4.0451   -0.9215 C.2       1 <0>         0.0011
     15 C10         0.9363    3.8581   -2.1778 C.2       1 <0>         0.5331
     16 O2          0.3478    2.8508   -2.5352 O.2       1 <0>        -0.4515
     17 N3          1.0276    5.0160   -2.8462 N.2       1 <0>        -0.6417
     18 C11         1.7387    5.8869   -2.1633 C.2       1 <0>         0.6550
     19 N4          2.1642    5.3588   -0.9829 N.pl3     1 <0>        -0.6695
     20 N5          2.0107    7.1602   -2.5824 N.pl3     1 <0>        -0.8051
     21 H2         -0.8954    1.9794    0.0253 H         1 <0>         0.1559
     22 H3          5.1230    1.9236    0.3550 H         1 <0>         0.4096
     23 H4          2.9118    1.5406    2.1889 H         1 <0>         0.0822
     24 H5          4.2983    2.6165    2.4205 H         1 <0>         0.0947
     25 H6          1.9957    3.7255    2.1345 H         1 <0>         0.1060
     26 H7          3.3154    4.3469    1.1126 H         1 <0>         0.0753
     27 H8          1.6708    7.4730   -3.4354 H         1 <0>         0.4333
     28 H9          2.5433    7.7504   -2.0267 H         1 <0>         0.4164
     29 H10         2.6983    5.8097   -0.3104 H         1 <0>         0.4239
@<TRIPOS>BOND
     1    1    6 2
     2    1    2 1
     3    1   21 1
     4    2   13 1
     5    2    3 2
     6    3    4 1
     7    3    8 1
     8    4    5 1
     9    4    6 1
    10    6    7 1
    11    8    9 2
    12    8   10 am
    13   10   11 1
    14   10   22 1
    15   11   12 1
    16   11   23 1
    17   11   24 1
    18   12   13 1
    19   12   25 1
    20   12   26 1
    21   13   14 2
    22   14   19 1
    23   14   15 1
    24   15   16 2
    25   15   17 1
    26   17   18 2
    27   18   19 1
    28   18   20 1
    29   19   29 1
    30   20   27 1
    31   20   28 1
@<TRIPOS>MOLECULE
CHEMBL30790
   67    71     0     0     0
SMALL
USER_CHARGES

@<TRIPOS>ATOM
      1 C1         -2.0121    1.4392   -6.0977 C.3       1 <0>         0.0230
      2 O1         -1.9859    0.0107   -6.1265 O.3       1 <0>        -0.2981
      3 C2         -0.8672   -0.5960   -5.6475 C.ar      1 <0>         0.1254
      4 C3          0.1597    0.1630   -5.1645 C.ar      1 <0>        -0.1554
      5 C4          1.3149   -0.4600   -4.6697 C.ar      1 <0>        -0.1006
      6 C5          1.4125   -1.8726   -4.6727 C.ar      1 <0>         0.1669
      7 C6          0.3439   -2.6307   -5.1748 C.ar      1 <0>        -0.1784
      8 C7         -0.7813   -1.9951   -5.6489 C.ar      1 <0>         0.1594
      9 O2         -1.8172   -2.7314   -6.1286 O.3       1 <0>        -0.2926
     10 C8         -1.6696   -4.1526   -6.1034 C.3       1 <0>         0.0549
     11 C9         -2.9274   -4.8063   -6.6790 C.3       1 <0>        -0.1159
     12 C10        -2.7693   -6.3279   -6.6520 C.3       1 <0>         0.0586
     13 N1         -3.9770   -6.9556   -7.2047 N.3       1 <0>        -0.5363
     14 C11        -5.1394   -6.7158   -6.3372 C.3       1 <0>         0.0125
     15 C12        -6.3844   -7.3343   -6.9789 C.3       1 <0>         0.0624
     16 O3         -6.1557   -8.7278   -7.2049 O.3       1 <0>        -0.3853
     17 C13        -5.0312   -8.9976   -8.0464 C.3       1 <0>         0.0626
     18 C14        -3.7726   -8.3961   -7.4156 C.3       1 <0>         0.0174
     19 N2          2.5140   -2.4746   -4.2003 N.ar      1 <0>        -0.4639
     20 C15         3.5263   -1.7948   -3.7255 C.ar      1 <0>         0.1796
     21 C16         3.5155   -0.3913   -3.6835 C.ar      1 <0>        -0.0921
     22 C17         2.3935    0.3014   -4.1631 C.ar      1 <0>         0.2696
     23 N3          2.3438    1.6811   -4.1402 N.pl3     1 <0>        -0.7079
     24 C18         2.7364    2.4130   -5.2639 C.ar      1 <0>         0.1984
     25 C19         3.0482    1.7569   -6.4481 C.ar      1 <0>        -0.1755
     26 C20         3.4359    2.4833   -7.5567 C.ar      1 <0>        -0.0665
     27 C21         3.5144    3.8624   -7.4889 C.ar      1 <0>        -0.1166
     28 C22         3.2048    4.5187   -6.3117 C.ar      1 <0>        -0.0707
     29 C23         2.8104    3.7988   -5.2011 C.ar      1 <0>        -0.1741
     30 C24         3.9389    4.6517   -8.7004 C.3       1 <0>        -0.0075
     31 C25         2.7240    5.0122   -9.5159 C.2       1 <0>        -0.1704
     32 C26         2.1511    4.2471  -10.5577 C.2       1 <0>        -0.2079
     33 C27         1.0873    4.9365  -11.0079 C.2       1 <0>        -0.0411
     34 O4          0.9862    6.0721  -10.2981 O.3       1 <0>        -0.1775
     35 C28         1.9731    6.1210   -9.3885 C.2       1 <0>        -0.0402
     36 C29         4.6379    0.3255   -3.1572 C.1       1 <0>         0.2563
     37 N4          5.5283    0.8941   -2.7397 N.1       1 <0>        -0.3969
     38 H1         -1.9098    1.7838   -5.0687 H         1 <0>         0.0577
     39 H2         -1.1884    1.8298   -6.6953 H         1 <0>         0.0595
     40 H3         -2.9580    1.7936   -6.5072 H         1 <0>         0.1066
     41 H4          0.0829    1.2402   -5.1636 H         1 <0>         0.1484
     42 H5          0.4018   -3.7091   -5.1845 H         1 <0>         0.1557
     43 H6         -0.8049   -4.4387   -6.7021 H         1 <0>         0.0708
     44 H7         -1.5256   -4.4846   -5.0752 H         1 <0>         0.0683
     45 H8         -3.7921   -4.5202   -6.0803 H         1 <0>         0.0765
     46 H9         -3.0714   -4.4742   -7.7072 H         1 <0>         0.0864
     47 H10        -1.9046   -6.6140   -7.2507 H         1 <0>         0.0817
     48 H11        -2.6253   -6.6600   -5.6238 H         1 <0>         0.0405
     49 H12        -4.9669   -7.1730   -5.3629 H         1 <0>         0.0446
     50 H13        -5.2876   -5.6429   -6.2155 H         1 <0>         0.0904
     51 H14        -7.2377   -7.2089   -6.3124 H         1 <0>         0.0993
     52 H15        -6.5879   -6.8400   -7.9288 H         1 <0>         0.0611
     53 H16        -4.9059  -10.0752   -8.1520 H         1 <0>         0.0997
     54 H17        -5.1954   -8.5517   -9.0274 H         1 <0>         0.0611
     55 H18        -2.9230   -8.5496   -8.0810 H         1 <0>         0.0883
     56 H19        -3.5782   -8.8801   -6.4585 H         1 <0>         0.0448
     57 H20         4.3910   -2.3263   -3.3565 H         1 <0>         0.1731
     58 H21         2.0364    2.1422   -3.3442 H         1 <0>         0.4167
     59 H22         2.9878    0.6799   -6.5015 H         1 <0>         0.1185
     60 H23         3.6784    1.9739   -8.4776 H         1 <0>         0.1222
     61 H24         3.2675    5.5957   -6.2620 H         1 <0>         0.1235
     62 H25         2.5641    4.3123   -4.2834 H         1 <0>         0.1234
     63 H26         4.4457    5.5624   -8.3815 H         1 <0>         0.0795
     64 H27         4.6177    4.0510   -9.3059 H         1 <0>         0.0806
     65 H28         2.5008    3.2926  -10.9225 H         1 <0>         0.1459
     66 H29         0.4269    4.6291  -11.8052 H         1 <0>         0.2009
     67 H30         2.1374    6.9167   -8.6770 H         1 <0>         0.1987
@<TRIPOS>BOND
     1    1    2 1
     2    1   38 1
     3    1   39 1
     4    1   40 1
     5    2    3 1
     6    3    8 ar
     7    3    4 ar
     8    4    5 ar
     9    4   41 1
    10    5   22 ar
    11    5    6 ar
    12    6    7 ar
    13    6   19 ar
    14    7    8 ar
    15    7   42 1
    16    8    9 1
    17    9   10 1
    18   10   11 1
    19   10   43 1
    20   10   44 1
    21   11   12 1
    22   11   45 1
    23   11   46 1
    24   12   13 1
    25   12   47 1
    26   12   48 1
    27   13   18 1
    28   13   14 1
    29   14   15 1
    30   14   49 1
    31   14   50 1
    32   15   16 1
    33   15   51 1
    34   15   52 1
    35   16   17 1
    36   17   18 1
    37   17   53 1
    38   17   54 1
    39   18   55 1
    40   18   56 1
    41   19   20 ar
    42   20   21 ar
    43   20   57 1
    44   21   22 ar
    45   21   36 1
    46   22   23 1
    47   23   24 1
    48   23   58 1
    49   24   29 ar
    50   24   25 ar
    51   25   26 ar
    52   25   59 1
    53   26   27 ar
    54   26   60 1
    55   27   28 ar
    56   27   30 1
    57   28   29 ar
    58   28   61 1
    59   29   62 1
    60   30   31 1
    61   30   63 1
    62   30   64 1
    63   31   35 2
    64   31   32 1
    65   32   33 2
    66   32   65 1
    67   33   34 1
    68   33   66 1
    69   34   35 1
    70   35   67 1
    71   36   37 3
@<TRIPOS>MOLECULE
CHEMBL30790__1
   68    72     0     0     0
SMALL
USER_CHARGES

@<TRIPOS>ATOM
      1 C1         -4.3089    1.3482    4.7909 C.3       1 <0>         0.0218
      2 O1         -4.3110   -0.0808    4.7876 O.3       1 <0>        -0.3024
      3 C2         -4.4401   -0.6952    3.5814 C.ar      1 <0>         0.1221
      4 C3         -4.5541    0.0572    2.4479 C.ar      1 <0>        -0.1467
      5 C4         -4.6874   -0.5737    1.2023 C.ar      1 <0>        -0.0972
      6 C5         -4.7033   -1.9874    1.1242 C.ar      1 <0>         0.1614
      7 C6         -4.5850   -2.7387    2.3034 C.ar      1 <0>        -0.1706
      8 C7         -4.4492   -2.0952    3.5126 C.ar      1 <0>         0.1490
      9 O2         -4.3284   -2.8248    4.6522 O.3       1 <0>        -0.2942
     10 C8         -4.3446   -4.2472    4.5167 C.3       1 <0>         0.0566
     11 C9         -4.1981   -4.8927    5.8961 C.3       1 <0>        -0.1505
     12 C10        -4.2154   -6.4157    5.7509 C.3       1 <0>        -0.0060
     13 N1         -4.0747   -7.0354    7.0754 N.4       1 <0>        -0.3843
     14 C11        -2.7521   -6.7138    7.6289 C.3       1 <0>        -0.0502
     15 C12        -2.6081   -7.3604    9.0088 C.3       1 <0>         0.0362
     16 O3         -2.7984   -8.7730    8.8898 O.3       1 <0>        -0.3563
     17 C13        -4.0645   -9.1365    8.3324 C.3       1 <0>         0.0355
     18 C14        -4.2112   -8.4932    6.9512 C.3       1 <0>        -0.0433
     19 N2         -4.8296   -2.5969   -0.0638 N.ar      1 <0>        -0.4667
     20 C15        -4.9414   -1.9237   -1.1803 C.ar      1 <0>         0.1849
     21 C16        -4.9349   -0.5196   -1.1968 C.ar      1 <0>        -0.0821
     22 C17        -4.8069    0.1808    0.0122 C.ar      1 <0>         0.2723
     23 N3         -4.7969    1.5612    0.0390 N.pl3     1 <0>        -0.7099
     24 C18        -5.9843    2.2643    0.2582 C.ar      1 <0>         0.1943
     25 C19        -7.1490    1.5799    0.5825 C.ar      1 <0>        -0.1767
     26 C20        -8.3208    2.2779    0.7985 C.ar      1 <0>        -0.0675
     27 C21        -8.3359    3.6566    0.6917 C.ar      1 <0>        -0.1123
     28 C22        -7.1784    4.3411    0.3691 C.ar      1 <0>        -0.0696
     29 C23        -6.0017    3.6498    0.1579 C.ar      1 <0>        -0.1712
     30 C24        -9.6169    4.4149    0.9271 C.3       1 <0>        -0.0092
     31 C25        -9.7249    4.7779    2.3858 C.2       1 <0>        -0.1718
     32 C26       -10.3214    4.0012    3.4054 C.2       1 <0>        -0.2085
     33 C27       -10.1969    4.6979    4.5493 C.2       1 <0>        -0.0413
     34 O4         -9.5603    5.8489    4.2781 O.3       1 <0>        -0.1766
     35 C28        -9.2671    5.9006    2.9684 C.2       1 <0>        -0.0377
     36 C29        -5.0581    0.1900   -2.4345 C.1       1 <0>         0.2484
     37 N4         -5.1559    0.7529   -3.4164 N.1       1 <0>        -0.3841
     38 H1         -4.1996    1.7090    5.8136 H         1 <0>         0.1085
     39 H2         -3.4777    1.7116    4.1866 H         1 <0>         0.0601
     40 H3         -5.2477    1.7138    4.3750 H         1 <0>         0.0618
     41 H4         -4.5421    1.1353    2.5102 H         1 <0>         0.1513
     42 H5         -4.5953   -3.8179    2.2618 H         1 <0>         0.1531
     43 H6         -5.2879   -4.5588    4.0681 H         1 <0>         0.0789
     44 H7         -3.5180   -4.5609    3.8791 H         1 <0>         0.0786
     45 H8         -3.2547   -4.5812    6.3446 H         1 <0>         0.1004
     46 H9         -5.0246   -4.5790    6.5336 H         1 <0>         0.1013
     47 H10        -5.1587   -6.7272    5.3024 H         1 <0>         0.1384
     48 H11        -3.3888   -6.7294    5.1134 H         1 <0>         0.1362
     49 H12        -1.9772   -7.0970    6.9651 H         1 <0>         0.1408
     50 H13        -2.6499   -5.6325    7.7215 H         1 <0>         0.1447
     51 H14        -1.6120   -7.1592    9.4029 H         1 <0>         0.1427
     52 H15        -3.3576   -6.9477    9.6841 H         1 <0>         0.0819
     53 H16        -4.1223  -10.2208    8.2370 H         1 <0>         0.1430
     54 H17        -4.8638   -8.7847    8.9846 H         1 <0>         0.0819
     55 H18        -5.1921   -8.7329    6.5408 H         1 <0>         0.1442
     56 H19        -3.4357   -8.8758    6.2877 H         1 <0>         0.1403
     57 H20        -5.0408   -2.4610   -2.1118 H         1 <0>         0.1763
     58 H21        -3.9656    2.0429   -0.0943 H         1 <0>         0.4182
     59 H22        -7.1380    0.5031    0.6653 H         1 <0>         0.1163
     60 H23        -9.2266    1.7465    1.0506 H         1 <0>         0.1224
     61 H24        -7.1938    5.4178    0.2862 H         1 <0>         0.1255
     62 H25        -5.0970    4.1854   -0.0893 H         1 <0>         0.1248
     63 H26        -9.6169    5.3238    0.3255 H         1 <0>         0.0812
     64 H27       -10.4652    3.7918    0.6440 H         1 <0>         0.0814
     65 H28       -10.7880    3.0343    3.2883 H         1 <0>         0.1453
     66 H29       -10.5495    4.3849    5.5210 H         1 <0>         0.2006
     67 H30        -8.7532    6.7077    2.4676 H         1 <0>         0.1995
     68 H31        -4.7921   -6.6815    7.6904 H         1 <0>         0.4246
@<TRIPOS>BOND
     1    1    2 1
     2    1   38 1
     3    1   39 1
     4    1   40 1
     5    2    3 1
     6    3    8 ar
     7    3    4 ar
     8    4    5 ar
     9    4   41 1
    10    5   22 ar
    11    5    6 ar
    12    6    7 ar
    13    6   19 ar
    14    7    8 ar
    15    7   42 1
    16    8    9 1
    17    9   10 1
    18   10   11 1
    19   10   43 1
    20   10   44 1
    21   11   12 1
    22   11   45 1
    23   11   46 1
    24   12   13 1
    25   12   47 1
    26   12   48 1
    27   13   18 1
    28   13   14 1
    29   13   68 1
    30   14   15 1
    31   14   49 1
    32   14   50 1
    33   15   16 1
    34   15   51 1
    35   15   52 1
    36   16   17 1
    37   17   18 1
    38   17   53 1
    39   17   54 1
    40   18   55 1
    41   18   56 1
    42   19   20 ar
    43   20   21 ar
    44   20   57 1
    45   21   22 ar
    46   21   36 1
    47   22   23 1
    48   23   24 1
    49   23   58 1
    50   24   29 ar
    51   24   25 ar
    52   25   26 ar
    53   25   59 1
    54   26   27 ar
    55   26   60 1
    56   27   28 ar
    57   27   30 1
    58   28   29 ar
    59   28   61 1
    60   29   62 1
    61   30   31 1
    62   30   63 1
    63   30   64 1
    64   31   35 2
    65   31   32 1
    66   32   33 2
    67   32   65 1
    68   33   34 1
    69   33   66 1
    70   34   35 1
    71   35   67 1
    72   36   37 3
@<TRIPOS>MOLECULE
CHEMBL485615
   70    73     0     0     0
SMALL
USER_CHARGES

@<TRIPOS>ATOM
      1 C1         -0.0421   -7.9089   -7.8928 C.3       1 <0>        -0.1879
      2 C2         -0.0217   -8.3429   -6.4258 C.3       1 <0>        -0.0167
      3 N1         -1.1475   -7.7215   -5.7156 N.4       1 <0>        -0.3868
      4 C3         -2.4121   -8.2448   -6.2495 C.3       1 <0>        -0.0149
      5 C4         -3.5836   -7.4912   -5.6166 C.3       1 <0>        -0.1884
      6 C5         -1.0546   -8.0329   -4.2830 C.3       1 <0>        -0.0118
      7 C6          0.2010   -7.3815   -3.6998 C.3       1 <0>        -0.1099
      8 C7          0.2962   -7.7010   -2.2302 C.2       1 <0>        -0.1751
      9 C8          1.3922   -8.2695   -1.7446 C.2       1 <0>        -0.0676
     10 C9          1.4855   -8.5826   -0.3045 C.ar      1 <0>        -0.0552
     11 C10         0.4232   -8.2856    0.5340 C.ar      1 <0>        -0.0494
     12 C11         0.5130   -8.5837    1.9005 C.ar      1 <0>         0.1215
     13 C12         1.6932   -9.1857    2.4015 C.ar      1 <0>        -0.0618
     14 C13         2.7560   -9.4780    1.5346 C.ar      1 <0>        -0.1835
     15 C14         2.6516   -9.1862    0.2054 C.ar      1 <0>         0.1528
     16 O1          3.6820   -9.4759   -0.6314 O.3       1 <0>        -0.3095
     17 C15         4.8361  -10.0875   -0.0519 C.3       1 <0>         0.0223
     18 C16         1.7779   -9.4844    3.7822 C.ar      1 <0>         0.2489
     19 C17         0.6766   -9.1648    4.5901 C.ar      1 <0>        -0.0618
     20 C18        -0.4538   -8.5687    4.0073 C.ar      1 <0>         0.1741
     21 N2         -0.5061   -8.3036    2.7274 N.ar      1 <0>        -0.4528
     22 C19         0.7042   -9.4440    5.9944 C.1       1 <0>         0.2430
     23 N3          0.7262   -9.6654    7.1084 N.1       1 <0>        -0.3761
     24 N4          2.9071  -10.0713    4.3163 N.pl3     1 <0>        -0.6987
     25 C20         3.0554  -11.4623    4.2824 C.ar      1 <0>         0.2465
     26 C21         2.0685  -12.2521    3.7055 C.ar      1 <0>        -0.1892
     27 C22         2.2142  -13.6243    3.6717 C.ar      1 <0>         0.0011
     28 C23         3.3476  -14.2163    4.2144 C.ar      1 <0>        -0.1679
     29 C24         4.3355  -13.4265    4.7913 C.ar      1 <0>         0.0751
     30 C25         4.1917  -12.0529    4.8202 C.ar      1 <0>        -0.1817
     31 Cl1         5.7522  -14.1657    5.4698 Cl        1 <0>        -0.0343
     32 S1          3.5328  -15.9680    4.1722 S.3       1 <0>         0.0942
     33 C26         4.6956  -16.2426    2.8771 C.2       1 <0>         0.1750
     34 N5          5.3260  -15.3109    2.2008 N.2       1 <0>        -0.4787
     35 C27         6.1317  -15.8883    1.2942 C.2       1 <0>        -0.0220
     36 C28         6.0042  -17.2219    1.4036 C.2       1 <0>        -0.0446
     37 N6          5.0973  -17.4573    2.4118 N.pl3     1 <0>        -0.4469
     38 C29         4.6472  -18.7664    2.8910 C.3       1 <0>         0.0688
     39 H1          0.8566   -8.2718   -8.3916 H         1 <0>         0.1057
     40 H2         -0.9225   -8.3250   -8.3826 H         1 <0>         0.0805
     41 H3         -0.0749   -6.8209   -7.9494 H         1 <0>         0.0796
     42 H4         -0.1091   -9.4278   -6.3666 H         1 <0>         0.1295
     43 H5          0.9156   -8.0283   -5.9668 H         1 <0>         0.1317
     44 H6         -2.4340   -8.1085   -7.3307 H         1 <0>         0.1316
     45 H7         -2.4938   -9.3062   -6.0153 H         1 <0>         0.1291
     46 H8         -3.6327   -7.7234   -4.5527 H         1 <0>         0.0812
     47 H9         -3.4393   -6.4188   -5.7481 H         1 <0>         0.0796
     48 H10        -4.5133   -7.7945   -6.0980 H         1 <0>         0.1057
     49 H11        -1.9356   -7.6478   -3.7696 H         1 <0>         0.1347
     50 H12        -0.9992   -9.1132   -4.1489 H         1 <0>         0.1315
     51 H13         1.0820   -7.7667   -4.2132 H         1 <0>         0.0908
     52 H14         0.1455   -6.3012   -3.8340 H         1 <0>         0.0971
     53 H15        -0.5277   -7.4672   -1.5722 H         1 <0>         0.1285
     54 H16         2.2161   -8.5033   -2.4026 H         1 <0>         0.1322
     55 H17        -0.4698   -7.8262    0.1365 H         1 <0>         0.1528
     56 H18         3.6555   -9.9367    1.9180 H         1 <0>         0.1446
     57 H19         4.5540  -11.0362    0.4047 H         1 <0>         0.0643
     58 H20         5.5814  -10.2649   -0.8273 H         1 <0>         0.1086
     59 H21         5.2534   -9.4280    0.7090 H         1 <0>         0.0608
     60 H22        -1.3007   -8.3234    4.6311 H         1 <0>         0.1782
     61 H23         3.5980   -9.5195    4.7153 H         1 <0>         0.4223
     62 H24         1.1870  -11.7922    3.2838 H         1 <0>         0.1299
     63 H25         1.4466  -14.2378    3.2235 H         1 <0>         0.1434
     64 H26         4.9609  -11.4386    5.2646 H         1 <0>         0.1421
     65 H27         6.7722  -15.3696    0.5964 H         1 <0>         0.1704
     66 H28         6.5185  -17.9671    0.8149 H         1 <0>         0.1781
     67 H29         3.7718  -19.0803    2.3223 H         1 <0>         0.0819
     68 H30         5.4464  -19.4959    2.7597 H         1 <0>         0.0919
     69 H31         4.3884  -18.6973    3.9476 H         1 <0>         0.0891
     70 H32        -1.1160   -6.7213   -5.8451 H         1 <0>         0.4220
@<TRIPOS>BOND
     1    1    2 1
     2    1   39 1
     3    1   40 1
     4    1   41 1
     5    2    3 1
     6    2   42 1
     7    2   43 1
     8    3    4 1
     9    3    6 1
    10    3   70 1
    11    4    5 1
    12    4   44 1
    13    4   45 1
    14    5   46 1
    15    5   47 1
    16    5   48 1
    17    6    7 1
    18    6   49 1
    19    6   50 1
    20    7    8 1
    21    7   51 1
    22    7   52 1
    23    8    9 2
    24    8   53 1
    25    9   10 1
    26    9   54 1
    27   10   15 ar
    28   10   11 ar
    29   11   12 ar
    30   11   55 1
    31   12   21 ar
    32   12   13 ar
    33   13   14 ar
    34   13   18 ar
    35   14   15 ar
    36   14   56 1
    37   15   16 1
    38   16   17 1
    39   17   57 1
    40   17   58 1
    41   17   59 1
    42   18   19 ar
    43   18   24 1
    44   19   20 ar
    45   19   22 1
    46   20   21 ar
    47   20   60 1
    48   22   23 3
    49   24   25 1
    50   24   61 1
    51   25   30 ar
    52   25   26 ar
    53   26   27 ar
    54   26   62 1
    55   27   28 ar
    56   27   63 1
    57   28   29 ar
    58   28   32 1
    59   29   30 ar
    60   29   31 1
    61   30   64 1
    62   32   33 1
    63   33   37 1
    64   33   34 2
    65   34   35 1
    66   35   36 2
    67   35   65 1
    68   36   37 1
    69   36   66 1
    70   37   38 1
    71   38   67 1
    72   38   68 1
    73   38   69 1
@<TRIPOS>MOLECULE
CHEMBL214901
   51    54     0     0     0
SMALL
USER_CHARGES

@<TRIPOS>ATOM
      1 C1         -0.6321    1.1177    1.0346 C.ar      1 <0>        -0.1308
      2 C2          0.0370    1.9448    1.9148 C.ar      1 <0>        -0.0881
      3 C3          0.4253    1.4665    3.1580 C.ar      1 <0>         0.0670
      4 C4          0.1416    0.1568    3.5177 C.ar      1 <0>        -0.0681
      5 C5         -0.5270   -0.6716    2.6384 C.ar      1 <0>        -0.1607
      6 C6         -0.9164   -0.1933    1.3940 C.ar      1 <0>         0.1570
      7 N1         -1.5950   -1.0323    0.5024 N.pl3     1 <0>        -0.6366
      8 C7         -1.8601   -2.3382    0.8516 C.2       1 <0>         0.1809
      9 C8         -3.1005   -2.9640    0.9754 C.2       1 <0>        -0.3764
     10 C9         -3.0431   -4.3043    1.3459 C.2       1 <0>         0.5404
     11 N2         -1.8145   -4.8211    1.5356 N.am      1 <0>        -0.7225
     12 S1         -0.7680   -3.5556    1.2220 S.3       1 <0>         0.5215
     13 O1         -4.0529   -4.9755    1.4915 O.2       1 <0>        -0.5092
     14 C10        -4.3744   -2.2597    0.7329 C.cat     1 <0>         0.6400
     15 N3         -5.1305   -2.6074   -0.2700 N.pl3     1 <0>        -0.3774
     16 N4         -6.3219   -1.9147   -0.5222 N.pl3     1 <0>        -0.5481
     17 C11        -7.5086   -2.1157    0.3243 C.3       1 <0>         0.0914
     18 C12        -8.0273   -0.7418    0.7639 C.3       1 <0>         0.0455
     19 O2         -8.2022    0.0861   -0.3885 O.3       1 <0>        -0.3615
     20 C13        -6.9947    0.3535   -1.1057 C.3       1 <0>         0.0426
     21 C14        -6.4215   -0.9602   -1.6376 C.3       1 <0>         0.1046
     22 N5         -4.7689   -1.2227    1.5763 N.pl3     1 <0>        -0.7822
     23 O3          1.0845    2.2814    4.0239 O.3       1 <0>        -0.2361
     24 C15         0.3728    3.2535    4.6527 C.ar      1 <0>         0.1400
     25 C16        -0.9736    3.4246    4.3657 C.ar      1 <0>        -0.1826
     26 C17        -1.6954    4.4143    5.0066 C.ar      1 <0>         0.0044
     27 C18        -1.0757    5.2342    5.9336 C.ar      1 <0>        -0.1250
     28 C19         0.2659    5.0659    6.2210 C.ar      1 <0>        -0.0570
     29 C20         0.9906    4.0733    5.5876 C.ar      1 <0>        -0.0584
     30 Cl1         2.6734    3.8573    5.9552 Cl        1 <0>        -0.0352
     31 Cl2        -3.3803    4.6292    4.6481 Cl        1 <0>        -0.0527
     32 H1         -0.9382    1.4916    0.0687 H         1 <0>         0.1425
     33 H2          0.2585    2.9643    1.6353 H         1 <0>         0.1466
     34 H3          0.4442   -0.2148    4.4855 H         1 <0>         0.1485
     35 H4         -0.7474   -1.6911    2.9184 H         1 <0>         0.1331
     36 H5         -1.8787   -0.6941   -0.3614 H         1 <0>         0.4332
     37 H6         -8.2807   -2.6351   -0.2433 H         1 <0>         0.0995
     38 H7         -7.2387   -2.7040    1.2013 H         1 <0>         0.0953
     39 H8         -8.9824   -0.8598    1.2757 H         1 <0>         0.1274
     40 H9         -7.3066   -0.2793    1.4384 H         1 <0>         0.0484
     41 H10        -7.2070    1.0234   -1.9389 H         1 <0>         0.1241
     42 H11        -6.2704    0.8199   -0.4380 H         1 <0>         0.0555
     43 H12        -5.4320   -0.7836   -2.0592 H         1 <0>         0.0951
     44 H13        -7.0823   -1.3613   -2.4061 H         1 <0>         0.0948
     45 H14        -4.1785   -0.9227    2.2851 H         1 <0>         0.4379
     46 H15        -5.6339   -0.8009    1.4546 H         1 <0>         0.4226
     47 H16        -1.4574    2.7856    3.6419 H         1 <0>         0.1450
     48 H17        -1.6412    6.0070    6.4330 H         1 <0>         0.1502
     49 H18         0.7474    5.7074    6.9442 H         1 <0>         0.1567
     50 H19        -4.8684   -3.3458   -0.8418 H         1 <0>         0.4504
     51 H20        -1.5867   -5.7279    1.7937 H         1 <0>         0.4664
@<TRIPOS>BOND
     1    1    6 ar
     2    1    2 ar
     3    1   32 1
     4    2    3 ar
     5    2   33 1
     6    3    4 ar
     7    3   23 1
     8    4    5 ar
     9    4   34 1
    10    5    6 ar
    11    5   35 1
    12    6    7 1
    13    7    8 1
    14    7   36 1
    15    8   12 1
    16    8    9 2
    17    9   10 1
    18    9   14 1
    19   10   11 am
    20   10   13 2
    21   11   12 1
    22   11   51 1
    23   14   15 2
    24   14   22 1
    25   15   16 1
    26   15   50 1
    27   16   21 1
    28   16   17 1
    29   17   18 1
    30   17   37 1
    31   17   38 1
    32   18   19 1
    33   18   39 1
    34   18   40 1
    35   19   20 1
    36   20   21 1
    37   20   41 1
    38   20   42 1
    39   21   43 1
    40   21   44 1
    41   22   45 1
    42   22   46 1
    43   23   24 1
    44   24   29 ar
    45   24   25 ar
    46   25   26 ar
    47   25   47 1
    48   26   27 ar
    49   26   31 1
    50   27   28 ar
    51   27   48 1
    52   28   29 ar
    53   28   49 1
    54   29   30 1
@<TRIPOS>MOLECULE
CHEMBL450271
   76    80     0     0     0
SMALL
USER_CHARGES

@<TRIPOS>ATOM
      1 C1          8.1858   -2.2830    3.1010 C.3       1 <0>         0.0694
      2 N1          6.9633   -1.7155    3.6752 N.pl3     1 <0>        -0.4478
      3 C2          6.7409   -0.3926    3.9830 C.2       1 <0>        -0.0448
      4 C3          5.4966   -0.3106    4.4848 C.2       1 <0>        -0.0191
      5 N2          4.9607   -1.5423    4.4896 N.2       1 <0>        -0.4768
      6 C4          5.8297   -2.3956    3.9999 C.2       1 <0>         0.1736
      7 S1          5.5742   -4.1277    3.8014 S.3       1 <0>         0.0915
      8 C5          3.9965   -4.4123    4.5325 C.ar      1 <0>        -0.1674
      9 C6          2.8863   -4.6298    3.7262 C.ar      1 <0>         0.0016
     10 C7          1.6503   -4.8528    4.2988 C.ar      1 <0>        -0.1826
     11 C8          1.5158   -4.8600    5.6816 C.ar      1 <0>         0.2462
     12 C9          2.6254   -4.6431    6.4887 C.ar      1 <0>        -0.1840
     13 C10         3.8635   -4.4251    5.9162 C.ar      1 <0>         0.0722
     14 Cl1         5.2518   -4.1605    6.9243 Cl        1 <0>        -0.0437
     15 N3          0.2624   -5.0852    6.2615 N.pl3     1 <0>        -0.6973
     16 C11         0.0996   -4.9546    7.6258 C.ar      1 <0>         0.2450
     17 C12         0.3608   -6.0366    8.4997 C.ar      1 <0>        -0.0671
     18 C13         0.7939   -7.2751    8.0035 C.ar      1 <0>        -0.1876
     19 C14         1.0405   -8.3054    8.8635 C.ar      1 <0>         0.1509
     20 C15         0.8631   -8.1367   10.2510 C.ar      1 <0>        -0.0378
     21 C16         0.4361   -6.9222   10.7626 C.ar      1 <0>        -0.0609
     22 C17         0.1790   -5.8538    9.8921 C.ar      1 <0>         0.1267
     23 N4         -0.2347   -4.6701   10.3698 N.ar      1 <0>        -0.4527
     24 C18        -0.4832   -3.6537    9.5847 C.ar      1 <0>         0.1716
     25 C19        -0.3245   -3.7433    8.1920 C.ar      1 <0>        -0.0654
     26 C20        -0.5978   -2.6115    7.3584 C.1       1 <0>         0.2449
     27 N5         -0.8147   -1.7136    6.6971 N.1       1 <0>        -0.3795
     28 C21         1.1338   -9.2631   11.1667 C.2       1 <0>        -0.1093
     29 C22         0.9683   -9.1097   12.4740 C.2       1 <0>        -0.1417
     30 C23         1.2446  -10.2593   13.4085 C.3       1 <0>        -0.0906
     31 C24         2.2548   -9.8215   14.4709 C.3       1 <0>        -0.1139
     32 C25         2.5353  -10.9886   15.4196 C.3       1 <0>         0.0534
     33 N6          3.5053  -10.5683   16.4396 N.3       1 <0>        -0.5396
     34 C26         4.8169  -10.2915   15.8369 C.3       1 <0>         0.0203
     35 C27         5.7795   -9.8007   16.9205 C.3       1 <0>        -0.0031
     36 N7          5.9075  -10.8271   17.9634 N.4       1 <0>        -0.3884
     37 C28         4.5941  -11.0748   18.5727 C.3       1 <0>        -0.0026
     38 C29         3.6217  -11.5763   17.5029 C.3       1 <0>         0.0247
     39 C30         6.8455  -10.3630   18.9942 C.3       1 <0>        -0.0460
     40 O1          1.4599   -9.5031    8.3782 O.3       1 <0>        -0.3071
     41 C31         1.6197   -9.6092    6.9621 C.3       1 <0>         0.0225
     42 H1          8.1206   -2.2610    2.0132 H         1 <0>         0.0815
     43 H2          9.0457   -1.6968    3.4253 H         1 <0>         0.0909
     44 H3          8.3009   -3.3134    3.4374 H         1 <0>         0.0885
     45 H4          7.4345    0.4242    3.8478 H         1 <0>         0.1787
     46 H5          5.0108    0.5915    4.8261 H         1 <0>         0.1713
     47 H6          2.9902   -4.6240    2.6513 H         1 <0>         0.1464
     48 H7          0.7873   -5.0215    3.6717 H         1 <0>         0.1394
     49 H8          2.5207   -4.6483    7.5636 H         1 <0>         0.1341
     50 H9         -0.4921   -5.3331    5.7045 H         1 <0>         0.4226
     51 H10         0.9319   -7.4133    6.9413 H         1 <0>         0.1423
     52 H11         0.3016   -6.7991   11.8271 H         1 <0>         0.1527
     53 H12        -0.8141   -2.7216   10.0184 H         1 <0>         0.1763
     54 H13         1.4665  -10.2118   10.7721 H         1 <0>         0.1285
     55 H14         0.6357   -8.1610   12.8686 H         1 <0>         0.1188
     56 H15         0.3172  -10.5647   13.8930 H         1 <0>         0.0806
     57 H16         1.6521  -11.0973   12.8430 H         1 <0>         0.0704
     58 H17         3.1823   -9.5161   13.9864 H         1 <0>         0.0653
     59 H18         1.8473   -8.9835   15.0363 H         1 <0>         0.0791
     60 H19         1.6079  -11.2940   15.9041 H         1 <0>         0.0899
     61 H20         2.9429  -11.8266   14.8541 H         1 <0>         0.0474
     62 H21         5.2100  -11.2032   15.3870 H         1 <0>         0.0604
     63 H22         4.7102   -9.5240   15.0704 H         1 <0>         0.1261
     64 H23         6.7570   -9.6084   16.4781 H         1 <0>         0.1353
     65 H24         5.3928   -8.8816   17.3608 H         1 <0>         0.1378
     66 H25         4.6928  -11.8272   19.3553 H         1 <0>         0.1355
     67 H26         4.2135  -10.1492   19.0046 H         1 <0>         0.1377
     68 H27         2.6430  -11.7460   17.9518 H         1 <0>         0.1236
     69 H28         3.9951  -12.5091   17.0804 H         1 <0>         0.0601
     70 H29         6.4714   -9.4398   19.4368 H         1 <0>         0.1233
     71 H30         6.9406  -11.1246   19.7683 H         1 <0>         0.1242
     72 H31         7.8206  -10.1804   18.5425 H         1 <0>         0.1241
     73 H32         0.6656   -9.4129    6.4730 H         1 <0>         0.0599
     74 H33         2.3577   -8.8817    6.6242 H         1 <0>         0.0606
     75 H34         1.9578  -10.6141    6.7089 H         1 <0>         0.1070
     76 H35         6.2544  -11.6813   17.5535 H         1 <0>         0.4222
@<TRIPOS>BOND
     1    1    2 1
     2    1   42 1
     3    1   43 1
     4    1   44 1
     5    2    6 1
     6    2    3 1
     7    3    4 2
     8    3   45 1
     9    4    5 1
    10    4   46 1
    11    5    6 2
    12    6    7 1
    13    7    8 1
    14    8   13 ar
    15    8    9 ar
    16    9   10 ar
    17    9   47 1
    18   10   11 ar
    19   10   48 1
    20   11   12 ar
    21   11   15 1
    22   12   13 ar
    23   12   49 1
    24   13   14 1
    25   15   16 1
    26   15   50 1
    27   16   25 ar
    28   16   17 ar
    29   17   22 ar
    30   17   18 ar
    31   18   19 ar
    32   18   51 1
    33   19   20 ar
    34   19   40 1
    35   20   21 ar
    36   20   28 1
    37   21   22 ar
    38   21   52 1
    39   22   23 ar
    40   23   24 ar
    41   24   25 ar
    42   24   53 1
    43   25   26 1
    44   26   27 3
    45   28   29 2
    46   28   54 1
    47   29   30 1
    48   29   55 1
    49   30   31 1
    50   30   56 1
    51   30   57 1
    52   31   32 1
    53   31   58 1
    54   31   59 1
    55   32   33 1
    56   32   60 1
    57   32   61 1
    58   33   38 1
    59   33   34 1
    60   34   35 1
    61   34   62 1
    62   34   63 1
    63   35   36 1
    64   35   64 1
    65   35   65 1
    66   36   37 1
    67   36   39 1
    68   36   76 1
    69   37   38 1
    70   37   66 1
    71   37   67 1
    72   38   68 1
    73   38   69 1
    74   39   70 1
    75   39   71 1
    76   39   72 1
    77   40   41 1
    78   41   73 1
    79   41   74 1
    80   41   75 1
@<TRIPOS>MOLECULE
CHEMBL450271__1
   76    80     0     0     0
SMALL
USER_CHARGES

@<TRIPOS>ATOM
      1 C1          8.1858   -2.2830    3.1010 C.3       1 <0>         0.0691
      2 N1          6.9633   -1.7155    3.6752 N.pl3     1 <0>        -0.4474
      3 C2          6.7409   -0.3926    3.9830 C.2       1 <0>        -0.0440
      4 C3          5.4966   -0.3106    4.4848 C.2       1 <0>        -0.0194
      5 N2          4.9607   -1.5423    4.4896 N.2       1 <0>        -0.4771
      6 C4          5.8297   -2.3956    3.9999 C.2       1 <0>         0.1731
      7 S1          5.5742   -4.1277    3.8014 S.3       1 <0>         0.0922
      8 C5          3.9965   -4.4123    4.5325 C.ar      1 <0>        -0.1664
      9 C6          2.8863   -4.6298    3.7262 C.ar      1 <0>         0.0018
     10 C7          1.6503   -4.8528    4.2988 C.ar      1 <0>        -0.1819
     11 C8          1.5158   -4.8600    5.6816 C.ar      1 <0>         0.2448
     12 C9          2.6254   -4.6431    6.4887 C.ar      1 <0>        -0.1842
     13 C10         3.8635   -4.4251    5.9162 C.ar      1 <0>         0.0718
     14 Cl1         5.2518   -4.1605    6.9243 Cl        1 <0>        -0.0430
     15 N3          0.2624   -5.0852    6.2615 N.pl3     1 <0>        -0.6981
     16 C11         0.0996   -4.9546    7.6258 C.ar      1 <0>         0.2457
     17 C12         0.3608   -6.0366    8.4997 C.ar      1 <0>        -0.0647
     18 C13         0.7939   -7.2751    8.0035 C.ar      1 <0>        -0.1858
     19 C14         1.0405   -8.3054    8.8635 C.ar      1 <0>         0.1514
     20 C15         0.8631   -8.1367   10.2510 C.ar      1 <0>        -0.0468
     21 C16         0.4361   -6.9222   10.7626 C.ar      1 <0>        -0.0555
     22 C17         0.1790   -5.8538    9.8921 C.ar      1 <0>         0.1239
     23 N4         -0.2347   -4.6701   10.3698 N.ar      1 <0>        -0.4533
     24 C18        -0.4832   -3.6537    9.5847 C.ar      1 <0>         0.1730
     25 C19        -0.3245   -3.7433    8.1920 C.ar      1 <0>        -0.0620
     26 C20        -0.5978   -2.6115    7.3584 C.1       1 <0>         0.2428
     27 N5         -0.8147   -1.7136    6.6971 N.1       1 <0>        -0.3759
     28 C21         1.1338   -9.2631   11.1667 C.2       1 <0>        -0.0892
     29 C22         0.9683   -9.1097   12.4740 C.2       1 <0>        -0.1621
     30 C23         1.2446  -10.2593   13.4085 C.3       1 <0>        -0.0831
     31 C24         2.2548   -9.8215   14.4709 C.3       1 <0>        -0.1461
     32 C25         2.5353  -10.9886   15.4196 C.3       1 <0>        -0.0098
     33 N6          3.5053  -10.5683   16.4396 N.4       1 <0>        -0.3869
     34 C26         4.7921  -10.2694   15.7975 C.3       1 <0>        -0.0066
     35 C27         5.7974   -9.8134   16.8573 C.3       1 <0>         0.0243
     36 N7          5.9652  -10.8760   17.8587 N.3       1 <0>        -0.5438
     37 C28         4.6802  -11.2034   18.4925 C.3       1 <0>         0.0238
     38 C29         3.6840  -11.6480   17.4193 C.3       1 <0>        -0.0019
     39 C30         6.9671  -10.4983   18.8643 C.3       1 <0>         0.0193
     40 O1          1.4599   -9.5031    8.3782 O.3       1 <0>        -0.3079
     41 C31         1.6197   -9.6092    6.9621 C.3       1 <0>         0.0222
     42 H1          8.1206   -2.2610    2.0132 H         1 <0>         0.0817
     43 H2          9.0457   -1.6968    3.4253 H         1 <0>         0.0912
     44 H3          8.3009   -3.3134    3.4374 H         1 <0>         0.0886
     45 H4          7.4345    0.4242    3.8478 H         1 <0>         0.1790
     46 H5          5.0108    0.5915    4.8261 H         1 <0>         0.1713
     47 H6          2.9902   -4.6240    2.6513 H         1 <0>         0.1469
     48 H7          0.7873   -5.0215    3.6717 H         1 <0>         0.1396
     49 H8          2.5207   -4.6483    7.5636 H         1 <0>         0.1334
     50 H9         -0.4921   -5.3331    5.7045 H         1 <0>         0.4230
     51 H10         0.9319   -7.4133    6.9413 H         1 <0>         0.1434
     52 H11         0.3016   -6.7991   11.8271 H         1 <0>         0.1519
     53 H12        -0.8141   -2.7216   10.0184 H         1 <0>         0.1772
     54 H13         1.4665  -10.2118   10.7721 H         1 <0>         0.1307
     55 H14         0.6357   -8.1610   12.8686 H         1 <0>         0.1210
     56 H15         0.3172  -10.5647   13.8930 H         1 <0>         0.0866
     57 H16         1.6521  -11.0973   12.8430 H         1 <0>         0.0805
     58 H17         3.1823   -9.5161   13.9864 H         1 <0>         0.0893
     59 H18         1.8473   -8.9835   15.0363 H         1 <0>         0.0890
     60 H19         1.6079  -11.2940   15.9041 H         1 <0>         0.1325
     61 H20         2.9429  -11.8266   14.8541 H         1 <0>         0.1316
     62 H21         5.1675  -11.1647   15.3020 H         1 <0>         0.1379
     63 H22         4.6555   -9.4771   15.0615 H         1 <0>         0.1372
     64 H23         6.7567   -9.6058   16.3831 H         1 <0>         0.1234
     65 H24         5.4288   -8.9103   17.3436 H         1 <0>         0.0604
     66 H25         4.8243  -12.0100   19.2114 H         1 <0>         0.1236
     67 H26         4.2931  -10.3232   19.0058 H         1 <0>         0.0604
     68 H27         2.7260  -11.8777   17.8856 H         1 <0>         0.1360
     69 H28         4.0651  -12.5363   16.9155 H         1 <0>         0.1377
     70 H29         6.6478   -9.5876   19.3712 H         1 <0>         0.0396
     71 H30         7.0715  -11.3022   19.5930 H         1 <0>         0.0839
     72 H31         7.9255  -10.3248   18.3750 H         1 <0>         0.0844
     73 H32         0.6656   -9.4129    6.4730 H         1 <0>         0.0606
     74 H33         2.3577   -8.8817    6.6242 H         1 <0>         0.0615
     75 H34         1.9578  -10.6141    6.7089 H         1 <0>         0.1082
     76 H35         3.1638   -9.7424   16.9081 H         1 <0>         0.4204
@<TRIPOS>BOND
     1    1    2 1
     2    1   42 1
     3    1   43 1
     4    1   44 1
     5    2    6 1
     6    2    3 1
     7    3    4 2
     8    3   45 1
     9    4    5 1
    10    4   46 1
    11    5    6 2
    12    6    7 1
    13    7    8 1
    14    8   13 ar
    15    8    9 ar
    16    9   10 ar
    17    9   47 1
    18   10   11 ar
    19   10   48 1
    20   11   12 ar
    21   11   15 1
    22   12   13 ar
    23   12   49 1
    24   13   14 1
    25   15   16 1
    26   15   50 1
    27   16   25 ar
    28   16   17 ar
    29   17   22 ar
    30   17   18 ar
    31   18   19 ar
    32   18   51 1
    33   19   20 ar
    34   19   40 1
    35   20   21 ar
    36   20   28 1
    37   21   22 ar
    38   21   52 1
    39   22   23 ar
    40   23   24 ar
    41   24   25 ar
    42   24   53 1
    43   25   26 1
    44   26   27 3
    45   28   29 2
    46   28   54 1
    47   29   30 1
    48   29   55 1
    49   30   31 1
    50   30   56 1
    51   30   57 1
    52   31   32 1
    53   31   58 1
    54   31   59 1
    55   32   33 1
    56   32   60 1
    57   32   61 1
    58   33   38 1
    59   33   34 1
    60   33   76 1
    61   34   35 1
    62   34   62 1
    63   34   63 1
    64   35   36 1
    65   35   64 1
    66   35   65 1
    67   36   37 1
    68   36   39 1
    69   37   38 1
    70   37   66 1
    71   37   67 1
    72   38   68 1
    73   38   69 1
    74   39   70 1
    75   39   71 1
    76   39   72 1
    77   40   41 1
    78   41   73 1
    79   41   74 1
    80   41   75 1
@<TRIPOS>MOLECULE
CHEMBL214636
   60    63     0     0     0
SMALL
USER_CHARGES

@<TRIPOS>ATOM
      1 C1         -1.7270    1.2635    0.1664 C.ar      1 <0>        -0.1272
      2 C2         -1.3687    2.2072    1.1085 C.ar      1 <0>        -0.0922
      3 C3         -0.9850    1.8072    2.3805 C.ar      1 <0>         0.0742
      4 C4         -0.9613    0.4588    2.7068 C.ar      1 <0>        -0.0691
      5 C5         -1.3197   -0.4859    1.7658 C.ar      1 <0>        -0.1526
      6 C6         -1.7035   -0.0863    0.4923 C.ar      1 <0>         0.1446
      7 N1         -2.0670   -1.0436   -0.4623 N.pl3     1 <0>        -0.6364
      8 C7         -2.0929   -2.3757   -0.1244 C.2       1 <0>         0.1747
      9 C8         -3.1734   -3.2617   -0.1790 C.2       1 <0>        -0.3585
     10 C9         -2.8815   -4.5608    0.2338 C.2       1 <0>         0.5448
     11 N2         -1.6153   -4.7936    0.6268 N.am      1 <0>        -0.7223
     12 S1         -0.8345   -3.3268    0.4445 S.3       1 <0>         0.5505
     13 O1         -3.7285   -5.4396    0.2391 O.2       1 <0>        -0.5150
     14 C10        -4.5112   -2.8552   -0.6352 C.cat     1 <0>         0.6203
     15 N3         -5.4525   -3.7510   -0.7807 N.pl3     1 <0>        -0.6069
     16 C11        -6.7851   -3.3461   -1.2351 C.3       1 <0>         0.0654
     17 C12        -7.6906   -4.5765   -1.3202 C.3       1 <0>        -0.1346
     18 C13        -9.0823   -4.1536   -1.7948 C.3       1 <0>         0.0581
     19 N4         -9.9517   -5.3349   -1.8766 N.3       1 <0>        -0.5368
     20 C14        -9.4945   -6.2536   -2.9294 C.3       1 <0>         0.0127
     21 C15       -10.3903   -7.4951   -2.9401 C.3       1 <0>         0.0611
     22 O2        -11.7505   -7.0938   -3.1248 O.3       1 <0>        -0.3815
     23 C16       -12.2288   -6.1991   -2.1168 C.3       1 <0>         0.0610
     24 C17       -11.3516   -4.9445   -2.0977 C.3       1 <0>         0.0178
     25 N5         -4.7729   -1.5287   -0.9096 N.pl3     1 <0>        -0.8039
     26 O3         -0.6315    2.7369    3.3074 O.3       1 <0>        -0.2353
     27 C18        -1.6016    3.5569    3.7906 C.ar      1 <0>         0.1385
     28 C19        -2.9227    3.3687    3.4119 C.ar      1 <0>        -0.1813
     29 C20        -3.9077    4.2039    3.9053 C.ar      1 <0>         0.0043
     30 C21        -3.5765    5.2272    4.7764 C.ar      1 <0>        -0.1239
     31 C22        -2.2606    5.4170    5.1549 C.ar      1 <0>        -0.0572
     32 C23        -1.2727    4.5809    4.6688 C.ar      1 <0>        -0.0575
     33 Cl1         0.3786    4.8156    5.1503 Cl        1 <0>        -0.0349
     34 Cl2        -5.5613    3.9695    3.4314 Cl        1 <0>        -0.0517
     35 H1         -2.0296    1.5752   -0.8224 H         1 <0>         0.1452
     36 H2         -1.3869    3.2569    0.8552 H         1 <0>         0.1481
     37 H3         -0.6622    0.1482    3.6969 H         1 <0>         0.1505
     38 H4         -1.3009   -1.5355    2.0198 H         1 <0>         0.1331
     39 H5         -2.3006   -0.7669   -1.3621 H         1 <0>         0.4337
     40 H6         -7.2083   -2.6318   -0.5289 H         1 <0>         0.1039
     41 H7         -6.7084   -2.8827   -2.2187 H         1 <0>         0.1029
     42 H8         -7.2674   -5.2909   -2.0264 H         1 <0>         0.0839
     43 H9         -7.7673   -5.0399   -0.3367 H         1 <0>         0.0945
     44 H10        -9.5055   -3.4393   -1.0886 H         1 <0>         0.0848
     45 H11        -9.0055   -3.6902   -2.7784 H         1 <0>         0.0437
     46 H12        -9.5515   -5.7554   -3.8972 H         1 <0>         0.0467
     47 H13        -8.4643   -6.5498   -2.7319 H         1 <0>         0.0863
     48 H14       -10.0909   -8.1530   -3.7560 H         1 <0>         0.1015
     49 H15       -10.2922   -8.0229   -1.9915 H         1 <0>         0.0621
     50 H16       -13.2590   -5.9197   -2.3372 H         1 <0>         0.1035
     51 H17       -12.1841   -6.6893   -1.1442 H         1 <0>         0.0627
     52 H18       -11.6770   -4.2851   -1.2931 H         1 <0>         0.0900
     53 H19       -11.4383   -4.4253   -3.0522 H         1 <0>         0.0474
     54 H20        -4.0587   -0.8739   -0.8640 H         1 <0>         0.4266
     55 H21        -5.6711   -1.2509   -1.1482 H         1 <0>         0.4282
     56 H22        -3.1816    2.5705    2.7319 H         1 <0>         0.1453
     57 H23        -4.3474    5.8786    5.1608 H         1 <0>         0.1505
     58 H24        -2.0047    6.2164    5.8345 H         1 <0>         0.1570
     59 H25        -5.2685   -4.6837   -0.5877 H         1 <0>         0.4502
     60 H26        -1.2380   -5.6295    0.9427 H         1 <0>         0.4685
@<TRIPOS>BOND
     1    1    6 ar
     2    1    2 ar
     3    1   35 1
     4    2    3 ar
     5    2   36 1
     6    3    4 ar
     7    3   26 1
     8    4    5 ar
     9    4   37 1
    10    5    6 ar
    11    5   38 1
    12    6    7 1
    13    7    8 1
    14    7   39 1
    15    8   12 1
    16    8    9 2
    17    9   10 1
    18    9   14 1
    19   10   11 am
    20   10   13 2
    21   11   12 1
    22   11   60 1
    23   14   15 2
    24   14   25 1
    25   15   16 1
    26   15   59 1
    27   16   17 1
    28   16   40 1
    29   16   41 1
    30   17   18 1
    31   17   42 1
    32   17   43 1
    33   18   19 1
    34   18   44 1
    35   18   45 1
    36   19   24 1
    37   19   20 1
    38   20   21 1
    39   20   46 1
    40   20   47 1
    41   21   22 1
    42   21   48 1
    43   21   49 1
    44   22   23 1
    45   23   24 1
    46   23   50 1
    47   23   51 1
    48   24   52 1
    49   24   53 1
    50   25   54 1
    51   25   55 1
    52   26   27 1
    53   27   32 ar
    54   27   28 ar
    55   28   29 ar
    56   28   56 1
    57   29   30 ar
    58   29   34 1
    59   30   31 ar
    60   30   57 1
    61   31   32 ar
    62   31   58 1
    63   32   33 1
@<TRIPOS>MOLECULE
CHEMBL386457
   64    67     0     0     0
SMALL
USER_CHARGES

@<TRIPOS>ATOM
      1 C1          1.2384    1.1676   -0.5346 C.3       1 <0>         0.0232
      2 N1          1.1831   -0.2989   -0.4701 N.3       1 <0>        -0.5467
      3 C2         -0.1848   -0.7849   -0.6988 C.3       1 <0>         0.0537
      4 C3         -0.1856   -2.3154   -0.7027 C.3       1 <0>         0.0579
      5 N2          0.3370   -2.8062    0.5801 N.3       1 <0>        -0.5400
      6 C4          1.7049   -2.3202    0.8088 C.3       1 <0>         0.0530
      7 C5          1.7057   -0.7897    0.8127 C.3       1 <0>         0.0540
      8 C6          0.2817   -4.2728    0.6446 C.3       1 <0>         0.0589
      9 C7          0.5942   -4.7327    2.0699 C.3       1 <0>        -0.1344
     10 C8          0.5366   -6.2601    2.1371 C.3       1 <0>         0.0653
     11 N3          0.8359   -6.7006    3.5019 N.pl3     1 <0>        -0.6065
     12 C9          0.8424   -7.9758    3.7908 C.cat     1 <0>         0.6200
     13 C10         1.1429   -8.4180    5.1608 C.2       1 <0>        -0.3609
     14 C11         1.5511   -7.5389    6.1628 C.2       1 <0>         0.5451
     15 N4          1.7926   -8.0798    7.3716 N.am      1 <0>        -0.7223
     16 S1          1.4849   -9.7115    7.1791 S.3       1 <0>         0.5497
     17 C12         1.0362   -9.7527    5.5639 C.2       1 <0>         0.1751
     18 N5          0.6557  -10.8400    4.8141 N.pl3     1 <0>        -0.6349
     19 C13         1.5167  -11.9362    4.6835 C.ar      1 <0>         0.1437
     20 C14         2.8045  -11.8733    5.1996 C.ar      1 <0>        -0.1515
     21 C15         3.6532  -12.9548    5.0704 C.ar      1 <0>        -0.0716
     22 C16         3.2196  -14.1042    4.4253 C.ar      1 <0>         0.0733
     23 C17         1.9333  -14.1675    3.9091 C.ar      1 <0>        -0.0868
     24 C18         1.0815  -13.0890    4.0430 C.ar      1 <0>        -0.1262
     25 O1          4.0558  -15.1687    4.2985 O.3       1 <0>        -0.2369
     26 C19         4.6234  -15.3930    3.0843 C.ar      1 <0>         0.1392
     27 C20         4.4340  -14.4873    2.0508 C.ar      1 <0>        -0.1800
     28 C21         5.0129  -14.7177    0.8166 C.ar      1 <0>         0.0041
     29 C22         5.7809  -15.8507    0.6119 C.ar      1 <0>        -0.1242
     30 C23         5.9707  -16.7549    1.6401 C.ar      1 <0>        -0.0573
     31 C24         5.3987  -16.5263    2.8778 C.ar      1 <0>        -0.0580
     32 Cl1         5.6435  -17.6587    4.1706 Cl        1 <0>        -0.0352
     33 Cl2         4.7760  -13.5850   -0.4775 Cl        1 <0>        -0.0518
     34 O2          1.6829   -6.3435    5.9552 O.2       1 <0>        -0.5151
     35 N6          0.5675   -8.9066    2.8102 N.pl3     1 <0>        -0.8045
     36 H1          2.2720    1.4972   -0.4292 H         1 <0>         0.0715
     37 H2          0.8457    1.5042   -1.4941 H         1 <0>         0.0719
     38 H3          0.6384    1.5897    0.2717 H         1 <0>         0.0289
     39 H4         -0.8370   -0.4229    0.0960 H         1 <0>         0.0446
     40 H5         -0.5449   -0.4186   -1.6602 H         1 <0>         0.0842
     41 H6         -1.2038   -2.6782   -0.8433 H         1 <0>         0.0828
     42 H7          0.4451   -2.6773   -1.5147 H         1 <0>         0.0470
     43 H8          2.0649   -2.6865    1.7702 H         1 <0>         0.0795
     44 H9          2.3570   -2.6822    0.0140 H         1 <0>         0.0463
     45 H10         2.7239   -0.4270    0.9533 H         1 <0>         0.0824
     46 H11         1.0750   -0.4278    1.6247 H         1 <0>         0.0441
     47 H12        -0.7157   -4.6114    0.3640 H         1 <0>         0.0831
     48 H13         1.0153   -4.6946   -0.0424 H         1 <0>         0.0432
     49 H14         1.5916   -4.3941    2.3505 H         1 <0>         0.0843
     50 H15        -0.1394   -4.3109    2.7570 H         1 <0>         0.0929
     51 H16        -0.4607   -6.5988    1.8565 H         1 <0>         0.1049
     52 H17         1.2702   -6.6820    1.4501 H         1 <0>         0.1016
     53 H18        -0.2094  -10.8478    4.3753 H         1 <0>         0.4334
     54 H19         3.1422  -10.9787    5.7014 H         1 <0>         0.1332
     55 H20         4.6548  -12.9060    5.4714 H         1 <0>         0.1497
     56 H21         1.5966  -15.0623    3.4068 H         1 <0>         0.1485
     57 H22         0.0785  -13.1403    3.6457 H         1 <0>         0.1460
     58 H23         3.8345  -13.6032    2.2100 H         1 <0>         0.1444
     59 H24         6.2323  -16.0289   -0.3529 H         1 <0>         0.1504
     60 H25         6.5701  -17.6385    1.4777 H         1 <0>         0.1568
     61 H26         0.4334   -8.6200    1.8933 H         1 <0>         0.4283
     62 H27         0.5083   -9.8477    3.0377 H         1 <0>         0.4264
     63 H28         1.0292   -6.0461    4.1913 H         1 <0>         0.4501
     64 H29         2.0816   -7.6232    8.1771 H         1 <0>         0.4683
@<TRIPOS>BOND
     1    1    2 1
     2    1   36 1
     3    1   37 1
     4    1   38 1
     5    2    7 1
     6    2    3 1
     7    3    4 1
     8    3   39 1
     9    3   40 1
    10    4    5 1
    11    4   41 1
    12    4   42 1
    13    5    6 1
    14    5    8 1
    15    6    7 1
    16    6   43 1
    17    6   44 1
    18    7   45 1
    19    7   46 1
    20    8    9 1
    21    8   47 1
    22    8   48 1
    23    9   10 1
    24    9   49 1
    25    9   50 1
    26   10   11 1
    27   10   51 1
    28   10   52 1
    29   11   12 2
    30   11   63 1
    31   12   13 1
    32   12   35 1
    33   13   17 2
    34   13   14 1
    35   14   15 am
    36   14   34 2
    37   15   16 1
    38   15   64 1
    39   16   17 1
    40   17   18 1
    41   18   19 1
    42   18   53 1
    43   19   24 ar
    44   19   20 ar
    45   20   21 ar
    46   20   54 1
    47   21   22 ar
    48   21   55 1
    49   22   23 ar
    50   22   25 1
    51   23   24 ar
    52   23   56 1
    53   24   57 1
    54   25   26 1
    55   26   31 ar
    56   26   27 ar
    57   27   28 ar
    58   27   58 1
    59   28   29 ar
    60   28   33 1
    61   29   30 ar
    62   29   59 1
    63   30   31 ar
    64   30   60 1
    65   31   32 1
    66   35   61 1
    67   35   62 1
@<TRIPOS>MOLECULE
CHEMBL30763
   49    52     0     0     0
SMALL
USER_CHARGES

@<TRIPOS>ATOM
      1 C1          3.7904    1.0485   -0.4119 C.3       1 <0>         0.0224
      2 O1          3.5960   -0.3601   -0.5536 O.3       1 <0>        -0.2981
      3 C2          2.9508   -0.7848   -1.6727 C.ar      1 <0>         0.1272
      4 C3          2.5292    0.1268   -2.5974 C.ar      1 <0>        -0.1590
      5 C4          1.8635   -0.3083   -3.7527 C.ar      1 <0>        -0.0985
      6 C5          1.6310   -1.6901   -3.9563 C.ar      1 <0>         0.1667
      7 C6          2.0735   -2.6075   -2.9912 C.ar      1 <0>        -0.1765
      8 C7          2.7298   -2.1550   -1.8690 C.ar      1 <0>         0.1554
      9 O2          3.1630   -3.0456   -0.9391 O.3       1 <0>        -0.2962
     10 C8          2.9078   -4.4279   -1.1962 C.3       1 <0>         0.0194
     11 N1          0.9958   -2.1129   -5.0593 N.ar      1 <0>        -0.4616
     12 C9          0.5719   -1.2819   -5.9770 C.ar      1 <0>         0.1793
     13 C10         0.7597    0.1046   -5.8577 C.ar      1 <0>        -0.0877
     14 C11         1.4164    0.6138   -4.7272 C.ar      1 <0>         0.2639
     15 N2          1.6201    1.9705   -4.5717 N.pl3     1 <0>        -0.7039
     16 C12         2.7839    2.5636   -5.0680 C.ar      1 <0>         0.2170
     17 C13         3.7865    1.7745   -5.6193 C.ar      1 <0>        -0.1765
     18 C14         4.9368    2.3609   -6.1097 C.ar      1 <0>        -0.0589
     19 C15         5.0945    3.7328   -6.0534 C.ar      1 <0>        -0.1674
     20 C16         4.0968    4.5261   -5.5040 C.ar      1 <0>         0.1285
     21 C17         2.9379    3.9421   -5.0162 C.ar      1 <0>        -0.1865
     22 O3          4.2534    5.8748   -5.4494 O.3       1 <0>        -0.2599
     23 C18         4.8401    6.4047   -4.3441 C.ar      1 <0>         0.1233
     24 C19         5.2774    5.5730   -3.3231 C.ar      1 <0>        -0.1935
     25 C20         5.8734    6.1143   -2.2006 C.ar      1 <0>        -0.0828
     26 C21         6.0340    7.4835   -2.0937 C.ar      1 <0>        -0.1526
     27 C22         5.5986    8.3144   -3.1095 C.ar      1 <0>        -0.0820
     28 C23         5.0080    7.7779   -4.2371 C.ar      1 <0>        -0.1462
     29 C24         0.2855    0.9894   -6.8789 C.1       1 <0>         0.2534
     30 N3         -0.0907    1.6914   -7.6889 N.1       1 <0>        -0.3930
     31 H1          4.3812    1.4198   -1.2493 H         1 <0>         0.0589
     32 H2          2.8224    1.5495   -0.3999 H         1 <0>         0.0584
     33 H3          4.3158    1.2508    0.5214 H         1 <0>         0.1072
     34 H4          2.7075    1.1802   -2.4396 H         1 <0>         0.1480
     35 H5          1.9043   -3.6650   -3.1307 H         1 <0>         0.1577
     36 H6          1.8331   -4.5898   -1.2785 H         1 <0>         0.0628
     37 H7          3.3916   -4.7194   -2.1285 H         1 <0>         0.0629
     38 H8          3.3042   -5.0289   -0.3778 H         1 <0>         0.1077
     39 H9          0.0655   -1.6720   -6.8476 H         1 <0>         0.1742
     40 H10         0.9554    2.5120   -4.1180 H         1 <0>         0.4188
     41 H11         3.6661    0.7022   -5.6639 H         1 <0>         0.1258
     42 H12         5.7147    1.7461   -6.5377 H         1 <0>         0.1347
     43 H13         5.9955    4.1882   -6.4371 H         1 <0>         0.1319
     44 H14         2.1584    4.5581   -4.5927 H         1 <0>         0.1330
     45 H15         5.1516    4.5036   -3.4058 H         1 <0>         0.1276
     46 H16         6.2140    5.4674   -1.4056 H         1 <0>         0.1254
     47 H17         6.4999    7.9046   -1.2151 H         1 <0>         0.1255
     48 H18         5.7249    9.3836   -3.0235 H         1 <0>         0.1316
     49 H19         4.6724    8.4270   -5.0324 H         1 <0>         0.1325
@<TRIPOS>BOND
     1    1    2 1
     2    1   31 1
     3    1   32 1
     4    1   33 1
     5    2    3 1
     6    3    8 ar
     7    3    4 ar
     8    4    5 ar
     9    4   34 1
    10    5   14 ar
    11    5    6 ar
    12    6    7 ar
    13    6   11 ar
    14    7    8 ar
    15    7   35 1
    16    8    9 1
    17    9   10 1
    18   10   36 1
    19   10   37 1
    20   10   38 1
    21   11   12 ar
    22   12   13 ar
    23   12   39 1
    24   13   14 ar
    25   13   29 1
    26   14   15 1
    27   15   16 1
    28   15   40 1
    29   16   21 ar
    30   16   17 ar
    31   17   18 ar
    32   17   41 1
    33   18   19 ar
    34   18   42 1
    35   19   20 ar
    36   19   43 1
    37   20   21 ar
    38   20   22 1
    39   21   44 1
    40   22   23 1
    41   23   28 ar
    42   23   24 ar
    43   24   25 ar
    44   24   45 1
    45   25   26 ar
    46   25   46 1
    47   26   27 ar
    48   26   47 1
    49   27   28 ar
    50   27   48 1
    51   28   49 1
    52   29   30 3
@<TRIPOS>MOLECULE
CHEMBL37646
   43    45     0     0     0
SMALL
USER_CHARGES

@<TRIPOS>ATOM
      1 C1          2.9038    1.4465    3.2979 C.ar      1 <0>        -0.1518
      2 C2          2.9050    0.0638    3.2959 C.ar      1 <0>        -0.0817
      3 C3          3.1542   -0.6262    2.1255 C.ar      1 <0>        -0.1953
      4 C4          3.4036    0.0696    0.9510 C.ar      1 <0>         0.1202
      5 C5          3.4018    1.4572    0.9558 C.ar      1 <0>        -0.1456
      6 C6          3.1519    2.1423    2.1290 C.ar      1 <0>        -0.0827
      7 O1          3.6495   -0.6067   -0.2015 O.3       1 <0>        -0.2597
      8 C7          3.7244   -1.9628   -0.1422 C.ar      1 <0>         0.0888
      9 C8          2.5620   -2.7179   -0.0680 C.ar      1 <0>        -0.1275
     10 C9          2.6340   -4.0940   -0.0072 C.ar      1 <0>        -0.0848
     11 C10         3.8773   -4.7269   -0.0209 C.ar      1 <0>        -0.0194
     12 C11         5.0433   -3.9647   -0.0960 C.ar      1 <0>        -0.0970
     13 C12         4.9631   -2.5893   -0.1617 C.ar      1 <0>        -0.1166
     14 C13         3.9590   -6.2043    0.0447 C.2       1 <0>        -0.1234
     15 C14         4.4662   -6.9192   -1.0301 C.2       1 <0>         0.2180
     16 N1          4.8926   -6.2573   -2.1549 N.pl3     1 <0>        -0.8266
     17 S1          4.5634   -8.6767   -0.9521 S.3       1 <0>         0.0203
     18 C15         6.2916   -9.0119   -1.0277 C.ar      1 <0>        -0.1935
     19 C16         7.2050   -7.9686   -0.9867 C.ar      1 <0>        -0.0720
     20 C17         8.5602   -8.2339   -1.0457 C.ar      1 <0>        -0.1613
     21 C18         9.0101   -9.5378   -1.1456 C.ar      1 <0>        -0.0627
     22 C19         8.1072  -10.5838   -1.1871 C.ar      1 <0>        -0.1837
     23 C20         6.7456  -10.3275   -1.1231 C.ar      1 <0>         0.2489
     24 N2          5.8302  -11.3849   -1.1592 N.pl3     1 <0>        -0.8699
     25 C21         3.5142   -6.8946    1.2179 C.1       1 <0>         0.2696
     26 N3          3.1614   -7.4422    2.1485 N.1       1 <0>        -0.4223
     27 H1          2.7043    1.9841    4.2131 H         1 <0>         0.1257
     28 H2          2.7112   -0.4772    4.2103 H         1 <0>         0.1263
     29 H3          3.1554   -1.7062    2.1245 H         1 <0>         0.1289
     30 H4          3.5959    2.0011    0.0432 H         1 <0>         0.1326
     31 H5          3.1504    3.2223    2.1333 H         1 <0>         0.1318
     32 H6          1.5999   -2.2273   -0.0575 H         1 <0>         0.1344
     33 H7          1.7292   -4.6807    0.0512 H         1 <0>         0.1340
     34 H8          6.0075   -4.4511   -0.1064 H         1 <0>         0.1341
     35 H9          5.8652   -1.9987   -0.2240 H         1 <0>         0.1365
     36 H10         4.9063   -5.2876   -2.1710 H         1 <0>         0.4069
     37 H11         5.1801   -6.7595   -2.9333 H         1 <0>         0.4112
     38 H12         6.8573   -6.9491   -0.9091 H         1 <0>         0.1242
     39 H13         9.2700   -7.4205   -1.0140 H         1 <0>         0.1253
     40 H14        10.0701   -9.7395   -1.1917 H         1 <0>         0.1276
     41 H15         8.4621  -11.6008   -1.2655 H         1 <0>         0.1291
     42 H16         4.8781  -11.2037   -1.1178 H         1 <0>         0.3994
     43 H17         6.1475  -12.2991   -1.2255 H         1 <0>         0.4042
@<TRIPOS>BOND
     1    1    6 ar
     2    1    2 ar
     3    1   27 1
     4    2    3 ar
     5    2   28 1
     6    3    4 ar
     7    3   29 1
     8    4    5 ar
     9    4    7 1
    10    5    6 ar
    11    5   30 1
    12    6   31 1
    13    7    8 1
    14    8   13 ar
    15    8    9 ar
    16    9   10 ar
    17    9   32 1
    18   10   11 ar
    19   10   33 1
    20   11   12 ar
    21   11   14 1
    22   12   13 ar
    23   12   34 1
    24   13   35 1
    25   14   15 2
    26   14   25 1
    27   15   16 1
    28   15   17 1
    29   16   36 1
    30   16   37 1
    31   17   18 1
    32   18   23 ar
    33   18   19 ar
    34   19   20 ar
    35   19   38 1
    36   20   21 ar
    37   20   39 1
    38   21   22 ar
    39   21   40 1
    40   22   23 ar
    41   22   41 1
    42   23   24 1
    43   24   42 1
    44   24   43 1
    45   25   26 3
@<TRIPOS>MOLECULE
CHEMBL37646__1
   43    45     0     0     0
SMALL
USER_CHARGES

@<TRIPOS>ATOM
      1 C1          1.8915    1.1177    3.3916 C.ar      1 <0>        -0.1533
      2 C2          1.9989   -0.2602    3.3510 C.ar      1 <0>        -0.0822
      3 C3          2.4119   -0.8882    2.1921 C.ar      1 <0>        -0.1955
      4 C4          2.7191   -0.1349    1.0679 C.ar      1 <0>         0.1221
      5 C5          2.6105    1.2478    1.1114 C.ar      1 <0>        -0.1466
      6 C6          2.1970    1.8707    2.2729 C.ar      1 <0>        -0.0830
      7 O1          3.1261   -0.7501   -0.0732 O.3       1 <0>        -0.2592
      8 C7          3.2992   -2.0982   -0.0446 C.ar      1 <0>         0.0883
      9 C8          2.1966   -2.9393   -0.1050 C.ar      1 <0>        -0.1296
     10 C9          2.3683   -4.3076   -0.0758 C.ar      1 <0>        -0.0846
     11 C10         3.6522   -4.8459    0.0140 C.ar      1 <0>        -0.0089
     12 C11         4.7580   -3.9974    0.0740 C.ar      1 <0>        -0.0781
     13 C12         4.5787   -2.6302    0.0391 C.ar      1 <0>        -0.1175
     14 C13         3.8408   -6.3146    0.0461 C.2       1 <0>        -0.1252
     15 C14         4.5013   -6.9518   -0.9937 C.2       1 <0>         0.2134
     16 N1          4.6762   -8.3133   -0.9639 N.pl3     1 <0>        -0.8316
     17 S1          5.1161   -6.0141   -2.3529 S.3       1 <0>         0.0440
     18 C15         4.1922   -6.6059   -3.7316 C.ar      1 <0>        -0.1963
     19 C16         3.1471   -7.4973   -3.5378 C.ar      1 <0>        -0.0721
     20 C17         2.4234   -7.9598   -4.6208 C.ar      1 <0>        -0.1616
     21 C18         2.7378   -7.5367   -5.8994 C.ar      1 <0>        -0.0631
     22 C19         3.7777   -6.6486   -6.1021 C.ar      1 <0>        -0.1838
     23 C20         4.5059   -6.1751   -5.0209 C.ar      1 <0>         0.2492
     24 N2          5.5550   -5.2718   -5.2231 N.pl3     1 <0>        -0.8698
     25 C21         3.3412   -7.0767    1.1508 C.1       1 <0>         0.2619
     26 N3          2.9448   -7.6813    2.0271 N.1       1 <0>        -0.4292
     27 H1          1.5641    1.6064    4.2974 H         1 <0>         0.1249
     28 H2          1.7600   -0.8460    4.2264 H         1 <0>         0.1254
     29 H3          2.4960   -1.9645    2.1610 H         1 <0>         0.1293
     30 H4          2.8493    1.8364    0.2380 H         1 <0>         0.1322
     31 H5          2.1122    2.9468    2.3072 H         1 <0>         0.1310
     32 H6          1.2030   -2.5218   -0.1745 H         1 <0>         0.1320
     33 H7          1.5099   -4.9613   -0.1220 H         1 <0>         0.1298
     34 H8          5.7534   -4.4106    0.1439 H         1 <0>         0.1322
     35 H9          5.4345   -1.9728    0.0814 H         1 <0>         0.1349
     36 H10         4.2732   -8.8386   -0.2551 H         1 <0>         0.4035
     37 H11         5.2027   -8.7498   -1.6518 H         1 <0>         0.4118
     38 H12         2.8990   -7.8301   -2.5408 H         1 <0>         0.1225
     39 H13         1.6103   -8.6540   -4.4681 H         1 <0>         0.1239
     40 H14         2.1693   -7.9015   -6.7421 H         1 <0>         0.1269
     41 H15         4.0205   -6.3206   -7.1020 H         1 <0>         0.1287
     42 H16         6.0655   -4.9442   -4.4661 H         1 <0>         0.3992
     43 H17         5.7718   -4.9732   -6.1201 H         1 <0>         0.4041
@<TRIPOS>BOND
     1    1    6 ar
     2    1    2 ar
     3    1   27 1
     4    2    3 ar
     5    2   28 1
     6    3    4 ar
     7    3   29 1
     8    4    5 ar
     9    4    7 1
    10    5    6 ar
    11    5   30 1
    12    6   31 1
    13    7    8 1
    14    8   13 ar
    15    8    9 ar
    16    9   10 ar
    17    9   32 1
    18   10   11 ar
    19   10   33 1
    20   11   12 ar
    21   11   14 1
    22   12   13 ar
    23   12   34 1
    24   13   35 1
    25   14   15 2
    26   14   25 1
    27   15   16 1
    28   15   17 1
    29   16   36 1
    30   16   37 1
    31   17   18 1
    32   18   23 ar
    33   18   19 ar
    34   19   20 ar
    35   19   38 1
    36   20   21 ar
    37   20   39 1
    38   21   22 ar
    39   21   40 1
    40   22   23 ar
    41   22   41 1
    42   23   24 1
    43   24   42 1
    44   24   43 1
    45   25   26 3
@<TRIPOS>MOLECULE
CHEMBL380328
   46    48     0     0     0
SMALL
USER_CHARGES

@<TRIPOS>ATOM
      1 C1          1.9381    1.3943    3.1077 C.ar      1 <0>        -0.0559
      2 C2          2.4821    2.0984    2.0508 C.ar      1 <0>        -0.1440
      3 C3          3.0256    1.4168    0.9704 C.ar      1 <0>         0.1576
      4 C4          3.0208    0.0267    0.9553 C.ar      1 <0>        -0.0591
      5 C5          2.4753   -0.6722    2.0152 C.ar      1 <0>        -0.0568
      6 C6          1.9343    0.0108    3.0906 C.ar      1 <0>        -0.0387
      7 Cl1         1.2503   -0.8701    4.4209 Cl        1 <0>        -0.0296
      8 Cl2         3.6987   -0.8302   -0.3937 Cl        1 <0>        -0.0362
      9 N1          3.5767    2.1275   -0.1014 N.pl3     1 <0>        -0.6348
     10 C7          3.4772    3.4980   -0.1410 C.2       1 <0>         0.1707
     11 C8          4.5094    4.4392   -0.2034 C.2       1 <0>        -0.3549
     12 C9          4.0849    5.7667   -0.2313 C.2       1 <0>         0.5455
     13 N2          2.7548    5.9706   -0.1952 N.am      1 <0>        -0.7205
     14 S1          2.0890    4.4385   -0.1335 S.3       1 <0>         0.5535
     15 O1          4.8764    6.6941   -0.2851 O.2       1 <0>        -0.5129
     16 C10         5.9297    4.0589   -0.2364 C.cat     1 <0>         0.6180
     17 N3          6.8547    4.9825   -0.2024 N.pl3     1 <0>        -0.6037
     18 C11         8.2695    4.6037   -0.2353 C.3       1 <0>         0.0647
     19 C12         9.1361    5.8636   -0.1847 C.3       1 <0>        -0.1002
     20 C13         8.9088    6.6902   -1.4520 C.3       1 <0>        -0.1220
     21 C14         9.7754    7.9501   -1.4014 C.3       1 <0>        -0.1209
     22 C15        11.2498    7.5516   -1.3100 C.3       1 <0>        -0.1248
     23 C16        11.4771    6.7251   -0.0427 C.3       1 <0>        -0.1212
     24 C17        10.6105    5.4652   -0.0933 C.3       1 <0>        -0.1116
     25 N4          6.2861    2.7278   -0.3033 N.pl3     1 <0>        -0.8056
     26 H1          1.5193    1.9244    3.9503 H         1 <0>         0.1570
     27 H2          2.4842    3.1783    2.0650 H         1 <0>         0.1427
     28 H3          2.4711   -1.7521    2.0044 H         1 <0>         0.1611
     29 H4          4.0289    1.6531   -0.8165 H         1 <0>         0.4317
     30 H5          8.4966    3.9718    0.6234 H         1 <0>         0.1050
     31 H6          8.4778    4.0561   -1.1545 H         1 <0>         0.1034
     32 H7          8.8650    6.4562    0.6891 H         1 <0>         0.0903
     33 H8          9.1799    6.0976   -2.3258 H         1 <0>         0.0702
     34 H9          7.8584    6.9740   -1.5171 H         1 <0>         0.0619
     35 H10         9.6134    8.5389   -2.3043 H         1 <0>         0.0694
     36 H11         9.5043    8.5427   -0.5277 H         1 <0>         0.0659
     37 H12        11.5208    6.9591   -2.1838 H         1 <0>         0.0645
     38 H13        11.8671    8.4492   -1.2740 H         1 <0>         0.0688
     39 H14        12.5274    6.4412    0.0224 H         1 <0>         0.0717
     40 H15        11.2060    7.3177    0.8310 H         1 <0>         0.0660
     41 H16        10.7724    4.8763    0.8095 H         1 <0>         0.0705
     42 H17        10.8816    4.8726   -0.9671 H         1 <0>         0.0711
     43 H18         5.6059    2.0396   -0.2354 H         1 <0>         0.4238
     44 H19         7.2169    2.4801   -0.4182 H         1 <0>         0.4294
     45 H20         6.6042    5.9184   -0.1554 H         1 <0>         0.4498
     46 H21         2.2857    6.8195   -0.2067 H         1 <0>         0.4690
@<TRIPOS>BOND
     1    1    6 ar
     2    1    2 ar
     3    1   26 1
     4    2    3 ar
     5    2   27 1
     6    3    4 ar
     7    3    9 1
     8    4    5 ar
     9    4    8 1
    10    5    6 ar
    11    5   28 1
    12    6    7 1
    13    9   10 1
    14    9   29 1
    15   10   14 1
    16   10   11 2
    17   11   12 1
    18   11   16 1
    19   12   13 am
    20   12   15 2
    21   13   14 1
    22   13   46 1
    23   16   17 2
    24   16   25 1
    25   17   18 1
    26   17   45 1
    27   18   19 1
    28   18   30 1
    29   18   31 1
    30   19   24 1
    31   19   20 1
    32   19   32 1
    33   20   21 1
    34   20   33 1
    35   20   34 1
    36   21   22 1
    37   21   35 1
    38   21   36 1
    39   22   23 1
    40   22   37 1
    41   22   38 1
    42   23   24 1
    43   23   39 1
    44   23   40 1
    45   24   41 1
    46   24   42 1
    47   25   43 1
    48   25   44 1
@<TRIPOS>MOLECULE
CHEMBL201629
   42    44     0     0     0
SMALL
USER_CHARGES

@<TRIPOS>ATOM
      1 C1         -0.2483    1.5537   -0.0622 C.3       1 <0>         0.0433
      2 N1         -0.1616    0.0915   -0.0926 N.am      1 <0>        -0.4842
      3 C2         -1.2698   -0.6324    0.1519 C.2       1 <0>         0.1889
      4 C3         -1.2264   -2.0098    0.1315 C.2       1 <0>        -0.2278
      5 C4          0.0511   -2.6718   -0.1618 C.2       1 <0>         0.2570
      6 C5          1.1577   -1.8765   -0.4053 C.2       1 <0>        -0.0328
      7 C6          1.0196   -0.4842   -0.3687 C.2       1 <0>         0.5165
      8 O1          1.9926    0.2202   -0.5874 O.2       1 <0>        -0.5073
      9 F1          2.3557   -2.4376   -0.6795 F         1 <0>        -0.0987
     10 N2          0.1462   -4.0506   -0.1934 N.pl3     1 <0>        -0.6719
     11 C7         -0.5100   -4.7744   -1.1953 C.ar      1 <0>         0.2256
     12 C8         -1.1662   -4.1059   -2.2201 C.ar      1 <0>        -0.1494
     13 C9         -1.8128   -4.8227   -3.2081 C.ar      1 <0>        -0.0513
     14 C10        -1.8080   -6.2060   -3.1780 C.ar      1 <0>        -0.1115
     15 C11        -1.1554   -6.8765   -2.1587 C.ar      1 <0>        -0.0799
     16 C12        -0.5014   -6.1649   -1.1697 C.ar      1 <0>         0.0526
     17 F2          0.1406   -6.8194   -0.1774 F         1 <0>        -0.1337
     18 Br1        -2.6959   -7.1823   -4.5324 Br        1 <0>        -0.0428
     19 C13        -2.4383   -2.8028    0.3992 C.2       1 <0>         0.5884
     20 O2         -2.3937   -4.0172    0.3494 O.2       1 <0>        -0.4867
     21 N3         -3.5966   -2.1827    0.6994 N.am      1 <0>        -0.6006
     22 O3         -4.7845   -2.9377    0.8539 O.3       1 <0>        -0.1272
     23 C14        -5.9354   -2.1522    1.1708 C.3       1 <0>         0.0627
     24 C15        -7.1536   -3.0668    1.3137 C.3       1 <0>        -0.1553
     25 C16        -8.2986   -2.8794    0.3164 C.3       1 <0>        -0.1726
     26 C17        -8.4673   -2.4279    1.7684 C.3       1 <0>        -0.1660
     27 H1          0.7298    1.9803   -0.2845 H         1 <0>         0.1132
     28 H2         -0.9693    1.8904   -0.8071 H         1 <0>         0.0915
     29 H3         -0.5698    1.8781    0.9274 H         1 <0>         0.0915
     30 H4         -2.2012   -0.1295    0.3662 H         1 <0>         0.1778
     31 H5          0.6678   -4.5163    0.4788 H         1 <0>         0.4239
     32 H6         -1.1714   -3.0262   -2.2446 H         1 <0>         0.1313
     33 H7         -2.3232   -4.3026   -4.0052 H         1 <0>         0.1386
     34 H8         -1.1534   -7.9563   -2.1378 H         1 <0>         0.1467
     35 H9         -3.6166   -1.2192    0.8097 H         1 <0>         0.4001
     36 H10        -5.7668   -1.6225    2.1084 H         1 <0>         0.0674
     37 H11        -6.1141   -1.4311    0.3732 H         1 <0>         0.0648
     38 H12        -6.9429   -4.0808    1.6539 H         1 <0>         0.1190
     39 H13        -8.1840   -2.1045   -0.4416 H         1 <0>         0.0976
     40 H14        -8.8413   -3.7702    0.0000 H         1 <0>         0.1007
     41 H15        -9.1210   -3.0216    2.4074 H         1 <0>         0.1029
     42 H16        -8.4638   -1.3559    1.9658 H         1 <0>         0.0977
@<TRIPOS>BOND
     1    1    2 1
     2    1   27 1
     3    1   28 1
     4    1   29 1
     5    2    7 am
     6    2    3 1
     7    3    4 2
     8    3   30 1
     9    4    5 1
    10    4   19 1
    11    5    6 2
    12    5   10 1
    13    6    7 1
    14    6    9 1
    15    7    8 2
    16   10   11 1
    17   10   31 1
    18   11   16 ar
    19   11   12 ar
    20   12   13 ar
    21   12   32 1
    22   13   14 ar
    23   13   33 1
    24   14   15 ar
    25   14   18 1
    26   15   16 ar
    27   15   34 1
    28   16   17 1
    29   19   20 2
    30   19   21 am
    31   21   22 1
    32   21   35 1
    33   22   23 1
    34   23   24 1
    35   23   36 1
    36   23   37 1
    37   24   26 1
    38   24   25 1
    39   24   38 1
    40   25   26 1
    41   25   39 1
    42   25   40 1
    43   26   41 1
    44   26   42 1
@<TRIPOS>MOLECULE
CHEMBL284708
   43    45     0     0     0
SMALL
USER_CHARGES

@<TRIPOS>ATOM
      1 C1          1.0397   -0.3000   -3.1720 C.ar      1 <0>        -0.0632
      2 C2          2.2342    0.3969   -3.1800 C.ar      1 <0>        -0.1608
      3 C3          3.1372    0.2410   -2.1453 C.ar      1 <0>        -0.0731
      4 C4          2.8463   -0.6163   -1.0942 C.ar      1 <0>        -0.1922
      5 C5          1.6411   -1.3190   -1.0858 C.ar      1 <0>         0.2483
      6 C6          0.7413   -1.1566   -2.1287 C.ar      1 <0>        -0.1835
      7 N1          1.3414   -2.1853   -0.0290 N.pl3     1 <0>        -0.8699
      8 S1          3.9957   -0.8176    0.2260 S.3       1 <0>         0.0171
      9 C7          5.2449    0.3787   -0.1102 C.2       1 <0>         0.2161
     10 C8          6.5288   -0.0325   -0.4390 C.2       1 <0>        -0.1208
     11 C9          6.8385   -1.4290   -0.5049 C.1       1 <0>         0.2694
     12 N2          7.0842   -2.5369   -0.5572 N.1       1 <0>        -0.4229
     13 C10         7.5782    0.9725   -0.7215 C.ar      1 <0>        -0.0193
     14 C11         7.4614    1.8157   -1.8274 C.ar      1 <0>        -0.1031
     15 C12         8.4428    2.7501   -2.0853 C.ar      1 <0>        -0.1098
     16 C13         9.5416    2.8522   -1.2503 C.ar      1 <0>        -0.1009
     17 C14         9.6635    2.0191   -0.1526 C.ar      1 <0>        -0.1121
     18 C15         8.6854    1.0847    0.1200 C.ar      1 <0>        -0.0835
     19 C16        10.8637    2.1368    0.7511 C.3       1 <0>         0.2356
     20 C17        10.6169    3.2134    1.7763 C.2       1 <0>        -0.1768
     21 C18        10.2347    3.0880    3.0707 C.2       1 <0>        -0.1436
     22 C19        10.0679    4.2283    3.8339 C.2       1 <0>        -0.1565
     23 C20        10.2914    5.4383    3.2653 C.2       1 <0>        -0.1678
     24 S2         10.7596    4.9845    1.6033 S.3       1 <0>         0.0442
     25 O1         12.0142    2.4742   -0.0265 O.3       1 <0>        -0.5389
     26 N3          4.9481    1.7170   -0.0470 N.pl3     1 <0>        -0.8254
     27 H1          0.3359   -0.1713   -3.9810 H         1 <0>         0.1275
     28 H2          2.4623    1.0648   -3.9975 H         1 <0>         0.1252
     29 H3          4.0693    0.7864   -2.1552 H         1 <0>         0.1242
     30 H4         -0.1926   -1.6989   -2.1255 H         1 <0>         0.1289
     31 H5          1.9719   -2.2981    0.6995 H         1 <0>         0.3994
     32 H6          0.5030   -2.6732   -0.0247 H         1 <0>         0.4041
     33 H7          6.6047    1.7365   -2.4802 H         1 <0>         0.1267
     34 H8          8.3536    3.4032   -2.9408 H         1 <0>         0.1299
     35 H9         10.3075    3.5852   -1.4566 H         1 <0>         0.1209
     36 H10         8.7793    0.4381    0.9799 H         1 <0>         0.1270
     37 H11        11.0328    1.1859    1.2563 H         1 <0>         0.1293
     38 H12        10.0628    2.1117    3.4993 H         1 <0>         0.1344
     39 H13         9.7637    4.1563    4.8676 H         1 <0>         0.1360
     40 H14        10.2110    6.4216    3.7048 H         1 <0>         0.1873
     41 H15        11.9340    3.3108   -0.5048 H         1 <0>         0.3755
     42 H16         4.0347    2.0044    0.1081 H         1 <0>         0.4099
     43 H17         5.6516    2.3756   -0.1575 H         1 <0>         0.4071
@<TRIPOS>BOND
     1    1    6 ar
     2    1    2 ar
     3    1   27 1
     4    2    3 ar
     5    2   28 1
     6    3    4 ar
     7    3   29 1
     8    4    5 ar
     9    4    8 1
    10    5    6 ar
    11    5    7 1
    12    6   30 1
    13    7   31 1
    14    7   32 1
    15    8    9 1
    16    9   10 2
    17    9   26 1
    18   10   11 1
    19   10   13 1
    20   11   12 3
    21   13   18 ar
    22   13   14 ar
    23   14   15 ar
    24   14   33 1
    25   15   16 ar
    26   15   34 1
    27   16   17 ar
    28   16   35 1
    29   17   18 ar
    30   17   19 1
    31   18   36 1
    32   19   20 1
    33   19   25 1
    34   19   37 1
    35   20   24 1
    36   20   21 2
    37   21   22 1
    38   21   38 1
    39   22   23 2
    40   22   39 1
    41   23   24 1
    42   23   40 1
    43   25   41 1
    44   26   42 1
    45   26   43 1
@<TRIPOS>MOLECULE
CHEMBL284708__1
   43    45     0     0     0
SMALL
USER_CHARGES

@<TRIPOS>ATOM
      1 C1          1.7816   -0.0928   -4.0219 C.ar      1 <0>        -0.0639
      2 C2          2.9467    0.5957   -3.7371 C.ar      1 <0>        -0.1614
      3 C3          3.6088    0.3781   -2.5435 C.ar      1 <0>        -0.0713
      4 C4          3.1047   -0.5329   -1.6268 C.ar      1 <0>        -0.1930
      5 C5          1.9291   -1.2271   -1.9139 C.ar      1 <0>         0.2489
      6 C6          1.2718   -1.0025   -3.1143 C.ar      1 <0>        -0.1838
      7 N1          1.4151   -2.1472   -0.9939 N.pl3     1 <0>        -0.8700
      8 S1          3.9469   -0.8128   -0.1046 S.3       1 <0>         0.0416
      9 C7          5.2449    0.3787   -0.1102 C.2       1 <0>         0.2098
     10 C8          6.5673   -0.0362   -0.1786 C.2       1 <0>        -0.1199
     11 C9          7.6222    0.9321   -0.1832 C.1       1 <0>         0.2613
     12 N2          8.4591    1.7003   -0.1868 N.1       1 <0>        -0.4289
     13 C10         6.8874   -1.4798   -0.2467 C.ar      1 <0>        -0.0090
     14 C11         6.5795   -2.3173    0.8263 C.ar      1 <0>        -0.0856
     15 C12         6.8805   -3.6616    0.7566 C.ar      1 <0>        -0.1111
     16 C13         7.4868   -4.1802   -0.3740 C.ar      1 <0>        -0.1001
     17 C14         7.7951   -3.3553   -1.4409 C.ar      1 <0>        -0.1148
     18 C15         7.4931   -2.0100   -1.3863 C.ar      1 <0>        -0.0819
     19 C16         8.4559   -3.9284   -2.6681 C.3       1 <0>         0.2363
     20 C17         7.4035   -4.4877   -3.5904 C.2       1 <0>        -0.1733
     21 C18         6.8651   -3.9360   -4.7054 C.2       1 <0>        -0.1439
     22 C19         5.9019   -4.6399   -5.4035 C.2       1 <0>        -0.1542
     23 C20         5.5242   -5.8611   -4.9526 C.2       1 <0>        -0.1698
     24 S2          6.5480   -6.0522   -3.5025 S.3       1 <0>         0.0442
     25 O1          9.3541   -4.9708   -2.2826 O.3       1 <0>        -0.5401
     26 N3          4.9481    1.7170   -0.0470 N.pl3     1 <0>        -0.8325
     27 H1          1.2660    0.0840   -4.9543 H         1 <0>         0.1261
     28 H2          3.3405    1.3053   -4.4497 H         1 <0>         0.1231
     29 H3          4.5188    0.9170   -2.3248 H         1 <0>         0.1215
     30 H4          0.3615   -1.5381   -3.3400 H         1 <0>         0.1279
     31 H5          1.8762   -2.3034   -0.1549 H         1 <0>         0.3990
     32 H6          0.5976   -2.6291   -1.1951 H         1 <0>         0.4036
     33 H7          6.1069   -1.9136    1.7096 H         1 <0>         0.1247
     34 H8          6.6427   -4.3108    1.5864 H         1 <0>         0.1284
     35 H9          7.7208   -5.2334   -0.4236 H         1 <0>         0.1188
     36 H10         7.7298   -1.3679   -2.2218 H         1 <0>         0.1225
     37 H11         9.0098   -3.1432   -3.1826 H         1 <0>         0.1274
     38 H12         7.1837   -2.9609   -5.0430 H         1 <0>         0.1329
     39 H13         5.4567   -4.2230   -6.2948 H         1 <0>         0.1345
     40 H14         4.7958   -6.5432   -5.3656 H         1 <0>         0.1861
     41 H15         8.9288   -5.7048   -1.8184 H         1 <0>         0.3754
     42 H16         4.0347    2.0044    0.1081 H         1 <0>         0.4115
     43 H17         5.6516    2.3756   -0.1575 H         1 <0>         0.4030
@<TRIPOS>BOND
     1    1    6 ar
     2    1    2 ar
     3    1   27 1
     4    2    3 ar
     5    2   28 1
     6    3    4 ar
     7    3   29 1
     8    4    5 ar
     9    4    8 1
    10    5    6 ar
    11    5    7 1
    12    6   30 1
    13    7   31 1
    14    7   32 1
    15    8    9 1
    16    9   10 2
    17    9   26 1
    18   10   11 1
    19   10   13 1
    20   11   12 3
    21   13   18 ar
    22   13   14 ar
    23   14   15 ar
    24   14   33 1
    25   15   16 ar
    26   15   34 1
    27   16   17 ar
    28   16   35 1
    29   17   18 ar
    30   17   19 1
    31   18   36 1
    32   19   20 1
    33   19   25 1
    34   19   37 1
    35   20   24 1
    36   20   21 2
    37   21   22 1
    38   21   38 1
    39   22   23 2
    40   22   39 1
    41   23   24 1
    42   23   40 1
    43   25   41 1
    44   26   42 1
    45   26   43 1
@<TRIPOS>MOLECULE
CHEMBL284708__2
   43    45     0     0     0
SMALL
USER_CHARGES

@<TRIPOS>ATOM
      1 C1          1.0397   -0.3000   -3.1720 C.ar      1 <0>        -0.0632
      2 C2          2.2342    0.3969   -3.1800 C.ar      1 <0>        -0.1609
      3 C3          3.1372    0.2410   -2.1453 C.ar      1 <0>        -0.0731
      4 C4          2.8463   -0.6163   -1.0942 C.ar      1 <0>        -0.1922
      5 C5          1.6411   -1.3190   -1.0858 C.ar      1 <0>         0.2483
      6 C6          0.7413   -1.1566   -2.1287 C.ar      1 <0>        -0.1835
      7 N1          1.3414   -2.1853   -0.0290 N.pl3     1 <0>        -0.8699
      8 S1          3.9957   -0.8176    0.2260 S.3       1 <0>         0.0172
      9 C7          5.2449    0.3787   -0.1102 C.2       1 <0>         0.2166
     10 C8          6.5288   -0.0325   -0.4390 C.2       1 <0>        -0.1218
     11 C9          6.8385   -1.4290   -0.5049 C.1       1 <0>         0.2698
     12 N2          7.0842   -2.5369   -0.5572 N.1       1 <0>        -0.4238
     13 C10         7.5782    0.9725   -0.7215 C.ar      1 <0>        -0.0194
     14 C11         7.4614    1.8157   -1.8274 C.ar      1 <0>        -0.1028
     15 C12         8.4428    2.7501   -2.0853 C.ar      1 <0>        -0.1101
     16 C13         9.5416    2.8522   -1.2503 C.ar      1 <0>        -0.1006
     17 C14         9.6635    2.0191   -0.1526 C.ar      1 <0>        -0.1119
     18 C15         8.6854    1.0847    0.1200 C.ar      1 <0>        -0.0835
     19 C16        10.8637    2.1368    0.7511 C.3       1 <0>         0.2367
     20 C17        12.0350    1.4236    0.1261 C.2       1 <0>        -0.1790
     21 C18        12.4678    0.1549    0.3267 C.2       1 <0>        -0.1430
     22 C19        13.5779   -0.2919   -0.3651 C.2       1 <0>        -0.1562
     23 C20        14.2010    0.5519   -1.2236 C.2       1 <0>        -0.1672
     24 S2         13.2079    2.0281   -1.0764 S.3       1 <0>         0.0437
     25 O1         11.1885    3.5163    0.9343 O.3       1 <0>        -0.5393
     26 N3          4.9481    1.7170   -0.0470 N.pl3     1 <0>        -0.8251
     27 H1          0.3359   -0.1713   -3.9810 H         1 <0>         0.1275
     28 H2          2.4623    1.0648   -3.9975 H         1 <0>         0.1252
     29 H3          4.0693    0.7864   -2.1552 H         1 <0>         0.1242
     30 H4         -0.1926   -1.6989   -2.1255 H         1 <0>         0.1289
     31 H5          1.9719   -2.2981    0.6995 H         1 <0>         0.3994
     32 H6          0.5030   -2.6732   -0.0247 H         1 <0>         0.4041
     33 H7          6.6047    1.7365   -2.4802 H         1 <0>         0.1267
     34 H8          8.3536    3.4032   -2.9408 H         1 <0>         0.1298
     35 H9         10.3075    3.5852   -1.4566 H         1 <0>         0.1206
     36 H10         8.7793    0.4381    0.9799 H         1 <0>         0.1273
     37 H11        10.6369    1.6855    1.7170 H         1 <0>         0.1291
     38 H12        11.9531   -0.4971    1.0169 H         1 <0>         0.1340
     39 H13        13.9436   -1.2982   -0.2234 H         1 <0>         0.1362
     40 H14        15.0703    0.3756   -1.8398 H         1 <0>         0.1877
     41 H15        11.4019    3.9824    0.1144 H         1 <0>         0.3755
     42 H16         4.0347    2.0044    0.1081 H         1 <0>         0.4102
     43 H17         5.6516    2.3756   -0.1575 H         1 <0>         0.4074
@<TRIPOS>BOND
     1    1    6 ar
     2    1    2 ar
     3    1   27 1
     4    2    3 ar
     5    2   28 1
     6    3    4 ar
     7    3   29 1
     8    4    5 ar
     9    4    8 1
    10    5    6 ar
    11    5    7 1
    12    6   30 1
    13    7   31 1
    14    7   32 1
    15    8    9 1
    16    9   10 2
    17    9   26 1
    18   10   11 1
    19   10   13 1
    20   11   12 3
    21   13   18 ar
    22   13   14 ar
    23   14   15 ar
    24   14   33 1
    25   15   16 ar
    26   15   34 1
    27   16   17 ar
    28   16   35 1
    29   17   18 ar
    30   17   19 1
    31   18   36 1
    32   19   20 1
    33   19   25 1
    34   19   37 1
    35   20   24 1
    36   20   21 2
    37   21   22 1
    38   21   38 1
    39   22   23 2
    40   22   39 1
    41   23   24 1
    42   23   40 1
    43   25   41 1
    44   26   42 1
    45   26   43 1
@<TRIPOS>MOLECULE
CHEMBL284708__3
   43    45     0     0     0
SMALL
USER_CHARGES

@<TRIPOS>ATOM
      1 C1          1.7816   -0.0928   -4.0219 C.ar      1 <0>        -0.0636
      2 C2          2.9467    0.5957   -3.7371 C.ar      1 <0>        -0.1615
      3 C3          3.6088    0.3781   -2.5435 C.ar      1 <0>        -0.0716
      4 C4          3.1047   -0.5329   -1.6268 C.ar      1 <0>        -0.1940
      5 C5          1.9291   -1.2271   -1.9139 C.ar      1 <0>         0.2487
      6 C6          1.2718   -1.0025   -3.1143 C.ar      1 <0>        -0.1836
      7 N1          1.4151   -2.1472   -0.9939 N.pl3     1 <0>        -0.8700
      8 S1          3.9469   -0.8128   -0.1046 S.3       1 <0>         0.0419
      9 C7          5.2449    0.3787   -0.1102 C.2       1 <0>         0.2104
     10 C8          6.5673   -0.0362   -0.1786 C.2       1 <0>        -0.1208
     11 C9          7.6222    0.9321   -0.1832 C.1       1 <0>         0.2616
     12 N2          8.4591    1.7003   -0.1868 N.1       1 <0>        -0.4299
     13 C10         6.8874   -1.4798   -0.2467 C.ar      1 <0>        -0.0090
     14 C11         6.5795   -2.3173    0.8263 C.ar      1 <0>        -0.0852
     15 C12         6.8805   -3.6616    0.7566 C.ar      1 <0>        -0.1114
     16 C13         7.4868   -4.1802   -0.3740 C.ar      1 <0>        -0.0998
     17 C14         7.7951   -3.3553   -1.4409 C.ar      1 <0>        -0.1145
     18 C15         7.4931   -2.0100   -1.3863 C.ar      1 <0>        -0.0817
     19 C16         8.4559   -3.9284   -2.6681 C.3       1 <0>         0.2372
     20 C17         9.9325   -4.0902   -2.4143 C.2       1 <0>        -0.1752
     21 C18        10.9477   -3.2430   -2.7125 C.2       1 <0>        -0.1458
     22 C19        12.2405   -3.6032   -2.3817 C.2       1 <0>        -0.1560
     23 C20        12.4549   -4.7931   -1.7687 C.2       1 <0>        -0.1692
     24 S2         10.7978   -5.4438   -1.6358 S.3       1 <0>         0.0444
     25 O1          7.8816   -5.2022   -2.9674 O.3       1 <0>        -0.5393
     26 N3          4.9481    1.7170   -0.0470 N.pl3     1 <0>        -0.8323
     27 H1          1.2660    0.0840   -4.9543 H         1 <0>         0.1266
     28 H2          3.3405    1.3053   -4.4497 H         1 <0>         0.1234
     29 H3          4.5188    0.9170   -2.3248 H         1 <0>         0.1216
     30 H4          0.3615   -1.5381   -3.3400 H         1 <0>         0.1285
     31 H5          1.8762   -2.3034   -0.1549 H         1 <0>         0.3990
     32 H6          0.5976   -2.6291   -1.1951 H         1 <0>         0.4038
     33 H7          6.1069   -1.9136    1.7096 H         1 <0>         0.1248
     34 H8          6.6427   -4.3108    1.5864 H         1 <0>         0.1284
     35 H9          7.7208   -5.2334   -0.4236 H         1 <0>         0.1185
     36 H10         7.7298   -1.3679   -2.2218 H         1 <0>         0.1228
     37 H11         8.3038   -3.2542   -3.5110 H         1 <0>         0.1276
     38 H12        10.7495   -2.3007   -3.2017 H         1 <0>         0.1331
     39 H13        13.0675   -2.9467   -2.6084 H         1 <0>         0.1353
     40 H14        13.3861   -5.2318   -1.4419 H         1 <0>         0.1872
     41 H15         7.9798   -5.8539   -2.2598 H         1 <0>         0.3752
     42 H16         4.0347    2.0044    0.1081 H         1 <0>         0.4116
     43 H17         5.6516    2.3756   -0.1575 H         1 <0>         0.4028
@<TRIPOS>BOND
     1    1    6 ar
     2    1    2 ar
     3    1   27 1
     4    2    3 ar
     5    2   28 1
     6    3    4 ar
     7    3   29 1
     8    4    5 ar
     9    4    8 1
    10    5    6 ar
    11    5    7 1
    12    6   30 1
    13    7   31 1
    14    7   32 1
    15    8    9 1
    16    9   10 2
    17    9   26 1
    18   10   11 1
    19   10   13 1
    20   11   12 3
    21   13   18 ar
    22   13   14 ar
    23   14   15 ar
    24   14   33 1
    25   15   16 ar
    26   15   34 1
    27   16   17 ar
    28   16   35 1
    29   17   18 ar
    30   17   19 1
    31   18   36 1
    32   19   20 1
    33   19   25 1
    34   19   37 1
    35   20   24 1
    36   20   21 2
    37   21   22 1
    38   21   38 1
    39   22   23 2
    40   22   39 1
    41   23   24 1
    42   23   40 1
    43   25   41 1
    44   26   42 1
    45   26   43 1
@<TRIPOS>MOLECULE
CHEMBL199210
   61    65     0     0     0
SMALL
USER_CHARGES

@<TRIPOS>ATOM
      1 C1          3.8854   -6.3119   -8.7067 C.ar      1 <0>        -0.0893
      2 C2          2.5844   -6.6508   -8.3818 C.ar      1 <0>        -0.1289
      3 C3          1.8734   -5.8826   -7.4813 C.ar      1 <0>        -0.0661
      4 C4          2.4666   -4.7677   -6.9012 C.ar      1 <0>        -0.1393
      5 C5          3.7741   -4.4301   -7.2300 C.ar      1 <0>        -0.0662
      6 C6          4.4789   -5.2030   -8.1313 C.ar      1 <0>        -0.1287
      7 S1          1.5630   -3.7841   -5.7519 S.3       1 <0>        -0.0164
      8 C7          1.8074   -4.5988   -4.2089 C.ar      1 <0>        -0.1363
      9 C8          1.1303   -4.1613   -3.0772 C.ar      1 <0>        -0.0525
     10 C9          1.3214   -4.7999   -1.8686 C.ar      1 <0>        -0.1582
     11 C10         2.1912   -5.8799   -1.7835 C.ar      1 <0>         0.2010
     12 C11         2.8686   -6.3172   -2.9148 C.ar      1 <0>        -0.1590
     13 C12         2.6729   -5.6826   -4.1248 C.ar      1 <0>        -0.0755
     14 N1          2.3852   -6.5270   -0.5580 N.pl3     1 <0>        -0.7024
     15 C13         3.3408   -7.5155   -0.4436 C.ar      1 <0>         0.2447
     16 C14         3.0475   -8.8601   -0.7725 C.ar      1 <0>        -0.0327
     17 C15         1.7833   -9.2550   -1.2280 C.ar      1 <0>        -0.2182
     18 C16         1.5766  -10.5888   -1.5291 C.ar      1 <0>         0.3970
     19 N2          2.5480  -11.4855   -1.3928 N.ar      1 <0>        -0.5086
     20 C17         3.7502  -11.1708   -0.9705 C.ar      1 <0>         0.2188
     21 C18         4.0602   -9.8423   -0.6395 C.ar      1 <0>         0.0387
     22 N3          5.2802   -9.4971   -0.2075 N.ar      1 <0>        -0.4293
     23 C19         5.5798   -8.2620    0.1033 C.ar      1 <0>         0.1530
     24 C20         4.6393   -7.2231   -0.0028 C.ar      1 <0>        -0.0523
     25 C21         5.0021   -5.8809    0.3398 C.1       1 <0>         0.2513
     26 N4          5.2899   -4.8161    0.6116 N.1       1 <0>        -0.3866
     27 N5          0.3261  -11.0005   -1.9834 N.pl3     1 <0>        -0.7196
     28 C22        -0.7549  -10.0239   -2.1383 C.3       1 <0>         0.1303
     29 C23        -2.0123  -10.7314   -2.6475 C.3       1 <0>         0.0450
     30 N6         -3.0962   -9.7522   -2.8028 N.3       1 <0>        -0.5319
     31 C24        -3.5100   -9.2130   -1.4992 C.3       1 <0>         0.0123
     32 C25        -4.5967   -8.1558   -1.7119 C.3       1 <0>         0.0630
     33 O1         -5.6887   -8.7393   -2.4278 O.3       1 <0>        -0.3839
     34 C26        -5.3215   -9.2738   -3.7024 C.3       1 <0>         0.0629
     35 C27        -4.2421  -10.3423   -3.5099 C.3       1 <0>         0.0186
     36 H1          4.4406   -6.9171   -9.4080 H         1 <0>         0.1284
     37 H2          2.1240   -7.5171   -8.8333 H         1 <0>         0.1293
     38 H3          0.8575   -6.1476   -7.2283 H         1 <0>         0.1314
     39 H4          4.2382   -3.5644   -6.7811 H         1 <0>         0.1326
     40 H5          5.4950   -4.9414   -8.3874 H         1 <0>         0.1300
     41 H6          0.4547   -3.3213   -3.1432 H         1 <0>         0.1315
     42 H7          0.7951   -4.4598   -0.9890 H         1 <0>         0.1299
     43 H8          3.5453   -7.1563   -2.8483 H         1 <0>         0.1193
     44 H9          3.1962   -6.0254   -5.0052 H         1 <0>         0.1227
     45 H10         1.8479   -6.2805    0.2111 H         1 <0>         0.4172
     46 H11         0.9874   -8.5338   -1.3413 H         1 <0>         0.1412
     47 H12         4.5046  -11.9378   -0.8769 H         1 <0>         0.1821
     48 H13         6.5780   -8.0341    0.4470 H         1 <0>         0.1750
     49 H14         0.1708  -11.9338   -2.1973 H         1 <0>         0.4074
     50 H15        -0.9648   -9.5584   -1.1753 H         1 <0>         0.0651
     51 H16        -0.4536   -9.2588   -2.8537 H         1 <0>         0.0767
     52 H17        -1.8025  -11.1969   -3.6105 H         1 <0>         0.0860
     53 H18        -2.3137  -11.4965   -1.9321 H         1 <0>         0.0453
     54 H19        -3.9029  -10.0194   -0.8800 H         1 <0>         0.0461
     55 H20        -2.6518   -8.7584   -1.0044 H         1 <0>         0.0881
     56 H21        -4.9470   -7.7943   -0.7451 H         1 <0>         0.0998
     57 H22        -4.1881   -7.3242   -2.2859 H         1 <0>         0.0622
     58 H23        -6.1960   -9.7209   -4.1753 H         1 <0>         0.1008
     59 H24        -4.9340   -8.4747   -4.3343 H         1 <0>         0.0622
     60 H25        -3.9183  -10.7120   -4.4828 H         1 <0>         0.0891
     61 H26        -4.6467  -11.1668   -2.9228 H         1 <0>         0.0461
@<TRIPOS>BOND
     1    1    6 ar
     2    1    2 ar
     3    1   36 1
     4    2    3 ar
     5    2   37 1
     6    3    4 ar
     7    3   38 1
     8    4    5 ar
     9    4    7 1
    10    5    6 ar
    11    5   39 1
    12    6   40 1
    13    7    8 1
    14    8   13 ar
    15    8    9 ar
    16    9   10 ar
    17    9   41 1
    18   10   11 ar
    19   10   42 1
    20   11   12 ar
    21   11   14 1
    22   12   13 ar
    23   12   43 1
    24   13   44 1
    25   14   15 1
    26   14   45 1
    27   15   24 ar
    28   15   16 ar
    29   16   21 ar
    30   16   17 ar
    31   17   18 ar
    32   17   46 1
    33   18   19 ar
    34   18   27 1
    35   19   20 ar
    36   20   21 ar
    37   20   47 1
    38   21   22 ar
    39   22   23 ar
    40   23   24 ar
    41   23   48 1
    42   24   25 1
    43   25   26 3
    44   27   28 1
    45   27   49 1
    46   28   29 1
    47   28   50 1
    48   28   51 1
    49   29   30 1
    50   29   52 1
    51   29   53 1
    52   30   35 1
    53   30   31 1
    54   31   32 1
    55   31   54 1
    56   31   55 1
    57   32   33 1
    58   32   56 1
    59   32   57 1
    60   33   34 1
    61   34   35 1
    62   34   58 1
    63   34   59 1
    64   35   60 1
    65   35   61 1
@<TRIPOS>MOLECULE
CHEMBL199210__1
   62    66     0     0     0
SMALL
USER_CHARGES

@<TRIPOS>ATOM
      1 C1          3.8854   -6.3119   -8.7067 C.ar      1 <0>        -0.0861
      2 C2          2.5844   -6.6508   -8.3818 C.ar      1 <0>        -0.1302
      3 C3          1.8734   -5.8826   -7.4813 C.ar      1 <0>        -0.0689
      4 C4          2.4666   -4.7677   -6.9012 C.ar      1 <0>        -0.1435
      5 C5          3.7741   -4.4301   -7.2300 C.ar      1 <0>        -0.0643
      6 C6          4.4789   -5.2030   -8.1313 C.ar      1 <0>        -0.1250
      7 S1          1.5630   -3.7841   -5.7519 S.3       1 <0>        -0.0104
      8 C7          1.8074   -4.5988   -4.2089 C.ar      1 <0>        -0.1352
      9 C8          1.1303   -4.1613   -3.0772 C.ar      1 <0>        -0.0549
     10 C9          1.3214   -4.7999   -1.8686 C.ar      1 <0>        -0.1598
     11 C10         2.1912   -5.8799   -1.7835 C.ar      1 <0>         0.1953
     12 C11         2.8686   -6.3172   -2.9148 C.ar      1 <0>        -0.1598
     13 C12         2.6729   -5.6826   -4.1248 C.ar      1 <0>        -0.0768
     14 N1          2.3852   -6.5270   -0.5580 N.pl3     1 <0>        -0.7028
     15 C13         3.3408   -7.5155   -0.4436 C.ar      1 <0>         0.2412
     16 C14         3.0475   -8.8601   -0.7725 C.ar      1 <0>        -0.0364
     17 C15         1.7833   -9.2550   -1.2280 C.ar      1 <0>        -0.2124
     18 C16         1.5766  -10.5888   -1.5291 C.ar      1 <0>         0.3862
     19 N2          2.5480  -11.4855   -1.3928 N.ar      1 <0>        -0.5053
     20 C17         3.7502  -11.1708   -0.9705 C.ar      1 <0>         0.2265
     21 C18         4.0602   -9.8423   -0.6395 C.ar      1 <0>         0.0505
     22 N3          5.2802   -9.4971   -0.2075 N.ar      1 <0>        -0.4289
     23 C19         5.5798   -8.2620    0.1033 C.ar      1 <0>         0.1657
     24 C20         4.6393   -7.2231   -0.0028 C.ar      1 <0>        -0.0416
     25 C21         5.0021   -5.8809    0.3398 C.1       1 <0>         0.2417
     26 N4          5.2899   -4.8161    0.6116 N.1       1 <0>        -0.3715
     27 N5          0.3261  -11.0005   -1.9834 N.pl3     1 <0>        -0.7253
     28 C22        -0.7549  -10.0239   -2.1383 C.3       1 <0>         0.1077
     29 C23        -2.0123  -10.7314   -2.6475 C.3       1 <0>        -0.0207
     30 N6         -3.0962   -9.7522   -2.8028 N.4       1 <0>        -0.3816
     31 C24        -3.4615   -9.2125   -1.4858 C.3       1 <0>        -0.0512
     32 C25        -4.5908   -8.1924   -1.6504 C.3       1 <0>         0.0366
     33 O1         -5.7058   -8.8220   -2.2878 O.3       1 <0>        -0.3547
     34 C26        -5.3938   -9.3850   -3.5651 C.3       1 <0>         0.0357
     35 C27        -4.2660  -10.4073   -3.4041 C.3       1 <0>        -0.0427
     36 H1          4.4406   -6.9171   -9.4080 H         1 <0>         0.1307
     37 H2          2.1240   -7.5171   -8.8333 H         1 <0>         0.1288
     38 H3          0.8575   -6.1476   -7.2283 H         1 <0>         0.1275
     39 H4          4.2382   -3.5644   -6.7811 H         1 <0>         0.1343
     40 H5          5.4950   -4.9414   -8.3874 H         1 <0>         0.1330
     41 H6          0.4547   -3.3213   -3.1432 H         1 <0>         0.1326
     42 H7          0.7951   -4.4598   -0.9890 H         1 <0>         0.1301
     43 H8          3.5453   -7.1563   -2.8483 H         1 <0>         0.1194
     44 H9          3.1962   -6.0254   -5.0052 H         1 <0>         0.1244
     45 H10         1.8479   -6.2805    0.2111 H         1 <0>         0.4174
     46 H11         0.9874   -8.5338   -1.3413 H         1 <0>         0.1368
     47 H12         4.5046  -11.9378   -0.8769 H         1 <0>         0.1879
     48 H13         6.5780   -8.0341    0.4470 H         1 <0>         0.1808
     49 H14         0.1708  -11.9338   -2.1973 H         1 <0>         0.4141
     50 H15        -0.9648   -9.5584   -1.1753 H         1 <0>         0.0838
     51 H16        -0.4536   -9.2588   -2.8537 H         1 <0>         0.0855
     52 H17        -1.8025  -11.1969   -3.6105 H         1 <0>         0.1427
     53 H18        -2.3137  -11.4965   -1.9321 H         1 <0>         0.1410
     54 H19        -3.7962  -10.0245   -0.8403 H         1 <0>         0.1425
     55 H20        -2.5944   -8.7262   -1.0390 H         1 <0>         0.1429
     56 H21        -4.8928   -7.8225   -0.6705 H         1 <0>         0.1435
     57 H22        -4.2434   -7.3605   -2.2630 H         1 <0>         0.0833
     58 H23        -6.2770   -9.8782   -3.9710 H         1 <0>         0.1443
     59 H24        -5.0739   -8.5939   -4.2432 H         1 <0>         0.0831
     60 H25        -3.9962  -10.8079   -4.3812 H         1 <0>         0.1451
     61 H26        -4.6004  -11.2189   -2.7578 H         1 <0>         0.1415
     62 H27        -2.7874   -9.0004   -3.4007 H         1 <0>         0.4258
@<TRIPOS>BOND
     1    1    6 ar
     2    1    2 ar
     3    1   36 1
     4    2    3 ar
     5    2   37 1
     6    3    4 ar
     7    3   38 1
     8    4    5 ar
     9    4    7 1
    10    5    6 ar
    11    5   39 1
    12    6   40 1
    13    7    8 1
    14    8   13 ar
    15    8    9 ar
    16    9   10 ar
    17    9   41 1
    18   10   11 ar
    19   10   42 1
    20   11   12 ar
    21   11   14 1
    22   12   13 ar
    23   12   43 1
    24   13   44 1
    25   14   15 1
    26   14   45 1
    27   15   24 ar
    28   15   16 ar
    29   16   21 ar
    30   16   17 ar
    31   17   18 ar
    32   17   46 1
    33   18   19 ar
    34   18   27 1
    35   19   20 ar
    36   20   21 ar
    37   20   47 1
    38   21   22 ar
    39   22   23 ar
    40   23   24 ar
    41   23   48 1
    42   24   25 1
    43   25   26 3
    44   27   28 1
    45   27   49 1
    46   28   29 1
    47   28   50 1
    48   28   51 1
    49   29   30 1
    50   29   52 1
    51   29   53 1
    52   30   35 1
    53   30   31 1
    54   30   62 1
    55   31   32 1
    56   31   54 1
    57   31   55 1
    58   32   33 1
    59   32   56 1
    60   32   57 1
    61   33   34 1
    62   34   35 1
    63   34   58 1
    64   34   59 1
    65   35   60 1
    66   35   61 1
@<TRIPOS>MOLECULE
CHEMBL245884
   56    59     0     0     0
SMALL
USER_CHARGES

@<TRIPOS>ATOM
      1 C1         -0.0187    1.5258    0.0104 C.3       1 <0>        -0.1460
      2 C2          0.0021   -0.0041    0.0020 C.3       1 <0>        -0.0438
      3 C3         -1.4314   -0.5358    0.0275 C.3       1 <0>         0.1135
      4 N1         -2.0625   -0.3761    1.3312 N.am      1 <0>        -0.7139
      5 C4         -1.3906   -0.5584    2.4908 C.2       1 <0>         0.5921
      6 O1         -1.9624   -0.5504    3.5645 O.2       1 <0>        -0.5279
      7 C5          0.0651   -0.7676    2.3952 C.2       1 <0>         0.0083
      8 C6          0.7304   -0.5055    1.2219 C.2       1 <0>        -0.0907
      9 C7          2.0791   -0.7900    1.4314 C.ar      1 <0>        -0.1136
     10 C8          3.2015   -0.7066    0.5981 C.ar      1 <0>         0.0326
     11 C9          4.4259   -1.0826    1.1531 C.ar      1 <0>        -0.1759
     12 C10         4.5291   -1.5220    2.4784 C.ar      1 <0>        -0.0654
     13 C11         3.4412   -1.6080    3.3050 C.ar      1 <0>        -0.1225
     14 C12         2.2020   -1.2383    2.7781 C.ar      1 <0>         0.1344
     15 N2          0.9588   -1.2129    3.3372 N.pl3     1 <0>        -0.5336
     16 H1          0.7421   -1.4669    4.2479 H         1 <0>         0.4314
     17 C13         5.6433   -1.0156    0.3210 C.2       1 <0>         0.5701
     18 O2          5.5715   -0.6366   -0.8320 O.2       1 <0>        -0.4973
     19 N3          6.8345   -1.3745    0.8394 N.am      1 <0>        -0.6077
     20 C14         7.9792   -1.3115    0.0570 C.2       1 <0>         0.2757
     21 N4          9.2201   -1.6202    0.3746 N.2       1 <0>        -0.5106
     22 C15        10.1674   -1.4770   -0.5568 C.2       1 <0>        -0.0126
     23 C16         9.8138   -1.0186   -1.7948 C.2       1 <0>        -0.2373
     24 S1          8.1524   -0.7988   -1.6427 S.3       1 <0>         0.2932
     25 C17        11.5696   -1.8072   -0.2542 C.2       1 <0>         0.6069
     26 O3         12.4243   -1.6728   -1.1092 O.2       1 <0>        -0.5220
     27 N5         11.9064   -2.2586    0.9703 N.am      1 <0>        -0.7214
     28 C18        13.3020   -2.5872    1.2715 C.3       1 <0>         0.0949
     29 C19        13.4107   -3.0726    2.7184 C.3       1 <0>        -0.0226
     30 N6         14.8101   -3.4021    3.0204 N.4       1 <0>        -0.3829
     31 C20        14.9347   -3.7533    4.4414 C.3       1 <0>        -0.0465
     32 C21        15.2339   -4.5414    2.1955 C.3       1 <0>        -0.0559
     33 H2          1.0039    1.9031    0.0027 H         1 <0>         0.0632
     34 H3         -0.5459    1.8868   -0.8726 H         1 <0>         0.0687
     35 H4         -0.5289    1.8773    0.9072 H         1 <0>         0.0566
     36 H5          0.5084   -0.3573   -0.8963 H         1 <0>         0.1074
     37 H6         -2.0197    0.0005   -0.7171 H         1 <0>         0.0977
     38 H7         -1.4194   -1.5946   -0.2311 H         1 <0>         0.0724
     39 H8         -2.9998   -0.1295    1.3688 H         1 <0>         0.4131
     40 H9          3.1235   -0.3682   -0.4245 H         1 <0>         0.1534
     41 H10         5.4991   -1.8028    2.8613 H         1 <0>         0.1260
     42 H11         3.5377   -1.9484    4.3254 H         1 <0>         0.1424
     43 H12         6.8918   -1.6768    1.7593 H         1 <0>         0.4258
     44 H13        10.4422   -0.8451   -2.6558 H         1 <0>         0.2105
     45 H14        11.2249   -2.3658    1.6521 H         1 <0>         0.4166
     46 H15        13.6437   -3.3732    0.5980 H         1 <0>         0.0904
     47 H16        13.9211   -1.7001    1.1383 H         1 <0>         0.0901
     48 H17        13.0691   -2.2866    3.3919 H         1 <0>         0.1389
     49 H18        12.7916   -3.9597    2.8515 H         1 <0>         0.1378
     50 H19        14.3033   -4.6146    4.6595 H         1 <0>         0.1234
     51 H20        15.9730   -3.9978    4.6655 H         1 <0>         0.1279
     52 H21        14.6203   -2.9080    5.0535 H         1 <0>         0.1249
     53 H22        15.1414   -4.2808    1.1411 H         1 <0>         0.1265
     54 H23        16.2722   -4.7859    2.4196 H         1 <0>         0.1286
     55 H24        14.6025   -5.4027    2.4136 H         1 <0>         0.1246
     56 H25        15.3945   -2.6048    2.8185 H         1 <0>         0.4302
@<TRIPOS>BOND
     1    1    2 1
     2    1   33 1
     3    1   34 1
     4    1   35 1
     5    2    8 1
     6    2    3 1
     7    2   36 1
     8    3    4 1
     9    3   37 1
    10    3   38 1
    11    4    5 am
    12    4   39 1
    13    5    6 2
    14    5    7 1
    15    7   15 1
    16    7    8 2
    17    8    9 1
    18    9   14 ar
    19    9   10 ar
    20   10   11 ar
    21   10   40 1
    22   11   12 ar
    23   11   17 1
    24   12   13 ar
    25   12   41 1
    26   13   14 ar
    27   13   42 1
    28   14   15 1
    29   15   16 1
    30   17   18 2
    31   17   19 am
    32   19   20 1
    33   19   43 1
    34   20   24 1
    35   20   21 2
    36   21   22 1
    37   22   23 2
    38   22   25 1
    39   23   24 1
    40   23   44 1
    41   25   26 2
    42   25   27 am
    43   27   28 1
    44   27   45 1
    45   28   29 1
    46   28   46 1
    47   28   47 1
    48   29   30 1
    49   29   48 1
    50   29   49 1
    51   30   31 1
    52   30   32 1
    53   30   56 1
    54   31   50 1
    55   31   51 1
    56   31   52 1
    57   32   53 1
    58   32   54 1
    59   32   55 1
@<TRIPOS>MOLECULE
CHEMBL245884__1
   56    59     0     0     0
SMALL
USER_CHARGES

@<TRIPOS>ATOM
      1 C1         -0.0187    1.5258    0.0104 C.3       1 <0>        -0.1459
      2 C2          0.0021   -0.0041    0.0020 C.3       1 <0>        -0.0438
      3 C3          0.7302   -0.4995   -1.2480 C.3       1 <0>         0.1135
      4 N1          2.1721   -0.3050   -1.1676 N.am      1 <0>        -0.7139
      5 C4          2.8670   -0.4869   -0.0216 C.2       1 <0>         0.5921
      6 O1          4.0827   -0.4481   -0.0025 O.2       1 <0>        -0.5279
      7 C5          2.0852   -0.7336    1.2032 C.2       1 <0>         0.0083
      8 C6          0.7304   -0.5055    1.2219 C.2       1 <0>        -0.0908
      9 C7          0.2693   -0.8196    2.4997 C.ar      1 <0>        -0.1136
     10 C8         -1.0044   -0.7764    3.0802 C.ar      1 <0>         0.0326
     11 C9         -1.1007   -1.1733    4.4149 C.ar      1 <0>        -0.1759
     12 C10         0.0205   -1.5945    5.1401 C.ar      1 <0>        -0.0654
     13 C11         1.2717   -1.6413    4.5864 C.ar      1 <0>        -0.1225
     14 C12         1.3999   -1.2499    3.2521 C.ar      1 <0>         0.1344
     15 N2          2.4891   -1.1862    2.4346 N.pl3     1 <0>        -0.5335
     16 H1          3.3971   -1.4215    2.6815 H         1 <0>         0.4314
     17 C13        -2.4186   -1.1478    5.0793 C.2       1 <0>         0.5701
     18 O2         -3.4025   -0.7845    4.4644 O.2       1 <0>        -0.4972
     19 N3         -2.5313   -1.5274    6.3676 N.am      1 <0>        -0.6077
     20 C14        -3.7705   -1.5035    6.9923 C.2       1 <0>         0.2758
     21 N4         -4.0825   -1.8269    8.2308 N.2       1 <0>        -0.5107
     22 C15        -5.3590   -1.7214    8.6115 C.2       1 <0>        -0.0126
     23 C16        -6.2851   -1.2848    7.7063 C.2       1 <0>        -0.2373
     24 S1         -5.3544   -1.0194    6.3297 S.3       1 <0>         0.2930
     25 C17        -5.7614   -2.0704    9.9837 C.2       1 <0>         0.6069
     26 O3         -6.9263   -1.9712   10.3198 O.2       1 <0>        -0.5221
     27 N5         -4.8392   -2.5000   10.8677 N.am      1 <0>        -0.7213
     28 C18        -5.2397   -2.8473   12.2335 C.3       1 <0>         0.0949
     29 C19        -4.0117   -3.3016   13.0251 C.3       1 <0>        -0.0227
     30 N6         -4.4133   -3.6499   14.3945 N.4       1 <0>        -0.3829
     31 C20        -3.2590   -4.1987   15.1187 C.3       1 <0>        -0.0465
     32 C21        -4.8968   -2.4463   15.0841 C.3       1 <0>        -0.0560
     33 H2          1.0039    1.9031    0.0027 H         1 <0>         0.0566
     34 H3         -0.5459    1.8868   -0.8726 H         1 <0>         0.0687
     35 H4         -0.5289    1.8773    0.9072 H         1 <0>         0.0632
     36 H5         -1.0199   -0.3830    0.0056 H         1 <0>         0.1075
     37 H6          0.5243   -1.5619   -1.3782 H         1 <0>         0.0724
     38 H7          0.3494    0.0403   -2.1151 H         1 <0>         0.0977
     39 H8          2.6518   -0.0352   -1.9663 H         1 <0>         0.4131
     40 H9         -1.8701   -0.4515    2.5222 H         1 <0>         0.1534
     41 H10        -0.1058   -1.8919    6.1706 H         1 <0>         0.1260
     42 H11         2.1267   -1.9681    5.1596 H         1 <0>         0.1424
     43 H12        -1.7464   -1.8174    6.8582 H         1 <0>         0.4258
     44 H13        -7.3470   -1.1417    7.8417 H         1 <0>         0.2105
     45 H14        -3.9103   -2.5791   10.5997 H         1 <0>         0.4166
     46 H15        -5.6806   -1.9749   12.7158 H         1 <0>         0.0904
     47 H16        -5.9715   -3.6545   12.2033 H         1 <0>         0.0901
     48 H17        -3.5708   -4.1740   12.5427 H         1 <0>         0.1389
     49 H18        -3.2798   -2.4944   13.0552 H         1 <0>         0.1378
     50 H19        -2.4633   -3.4545   15.1515 H         1 <0>         0.1234
     51 H20        -3.5570   -4.4572   16.1348 H         1 <0>         0.1279
     52 H21        -2.9002   -5.0918   14.6070 H         1 <0>         0.1249
     53 H22        -5.7533   -2.0391   14.5468 H         1 <0>         0.1265
     54 H23        -5.1947   -2.7048   16.1003 H         1 <0>         0.1286
     55 H24        -4.1011   -1.7020   15.1170 H         1 <0>         0.1246
     56 H25        -5.1498   -4.3389   14.3641 H         1 <0>         0.4302
@<TRIPOS>BOND
     1    1    2 1
     2    1   33 1
     3    1   34 1
     4    1   35 1
     5    2    8 1
     6    2    3 1
     7    2   36 1
     8    3    4 1
     9    3   37 1
    10    3   38 1
    11    4    5 am
    12    4   39 1
    13    5    6 2
    14    5    7 1
    15    7   15 1
    16    7    8 2
    17    8    9 1
    18    9   14 ar
    19    9   10 ar
    20   10   11 ar
    21   10   40 1
    22   11   12 ar
    23   11   17 1
    24   12   13 ar
    25   12   41 1
    26   13   14 ar
    27   13   42 1
    28   14   15 1
    29   15   16 1
    30   17   18 2
    31   17   19 am
    32   19   20 1
    33   19   43 1
    34   20   24 1
    35   20   21 2
    36   21   22 1
    37   22   23 2
    38   22   25 1
    39   23   24 1
    40   23   44 1
    41   25   26 2
    42   25   27 am
    43   27   28 1
    44   27   45 1
    45   28   29 1
    46   28   46 1
    47   28   47 1
    48   29   30 1
    49   29   48 1
    50   29   49 1
    51   30   31 1
    52   30   32 1
    53   30   56 1
    54   31   50 1
    55   31   51 1
    56   31   52 1
    57   32   53 1
    58   32   54 1
    59   32   55 1
@<TRIPOS>MOLECULE
CHEMBL265786
   70    74     0     0     0
SMALL
USER_CHARGES

@<TRIPOS>ATOM
      1 C1         -0.1975    1.8889    0.0723 C.3       1 <0>        -0.0900
      2 C2         -0.2810    0.3899   -0.0585 C.2       1 <0>        -0.0999
      3 C3         -0.8053   -0.3232   -1.1413 C.2       1 <0>         0.1000
      4 C4         -0.6910   -1.6521   -0.8608 C.2       1 <0>         0.0547
      5 N1         -0.1132   -1.7986    0.3606 N.pl3     1 <0>        -0.2481
      6 C5          0.1527   -0.5442    0.8687 C.2       1 <0>        -0.0398
      7 C6          0.7640   -0.4213    2.1350 C.2       1 <0>         0.3435
      8 C7          1.0871   -1.5882    2.8394 C.2       1 <0>        -0.1545
      9 C8          0.7942   -2.8477    2.2666 C.2       1 <0>         0.1821
     10 N2          0.2219   -2.9389    1.1014 N.2       1 <0>        -0.2631
     11 C9          1.7086   -1.5066    4.1269 C.1       1 <0>         0.2618
     12 N3          2.2017   -1.4419    5.1483 N.1       1 <0>        -0.4026
     13 N4          1.0381    0.8233    2.6681 N.pl3     1 <0>        -0.6851
     14 C10         1.9509    1.6715    2.0315 C.ar      1 <0>         0.1952
     15 C11         2.6956    1.2080    0.9545 C.ar      1 <0>        -0.1511
     16 C12         3.5962    2.0455    0.3269 C.ar      1 <0>        -0.0762
     17 C13         3.7577    3.3497    0.7720 C.ar      1 <0>         0.0505
     18 C14         3.0141    3.8135    1.8478 C.ar      1 <0>        -0.0931
     19 C15         2.1087    2.9791    2.4726 C.ar      1 <0>        -0.1538
     20 O1          4.6453    4.1735    0.1541 O.3       1 <0>        -0.2432
     21 C16         5.7816    4.5046    0.8232 C.ar      1 <0>         0.0917
     22 C17         6.0309    3.9681    2.0767 C.ar      1 <0>        -0.1591
     23 C18         7.1869    4.3054    2.7553 C.ar      1 <0>        -0.1188
     24 C19         8.0967    5.1776    2.1866 C.ar      1 <0>        -0.1113
     25 C20         7.8543    5.7163    0.9367 C.ar      1 <0>        -0.1751
     26 C21         6.7000    5.3784    0.2486 C.ar      1 <0>         0.1048
     27 O2          6.4626    5.9034   -0.9832 O.3       1 <0>        -0.3066
     28 C22         7.4489    6.7929   -1.5104 C.3       1 <0>         0.0257
     29 N5         -1.3529    0.2322   -2.3114 N.am      1 <0>        -0.6181
     30 C23        -1.8256   -0.5739   -3.2826 C.2       1 <0>         0.6505
     31 O3         -1.7784   -1.7807   -3.1472 O.2       1 <0>        -0.5595
     32 O4         -2.3500   -0.0421   -4.4031 O.3       1 <0>        -0.3401
     33 C24        -2.8319   -0.9556   -5.3908 C.3       1 <0>         0.0924
     34 C25        -3.3866   -0.1724   -6.5824 C.3       1 <0>         0.0525
     35 N6         -2.3095    0.6184   -7.1927 N.3       1 <0>        -0.5319
     36 C26        -2.8564    1.7129   -8.0077 C.3       1 <0>         0.0183
     37 C27        -1.7032    2.5451   -8.5747 C.3       1 <0>         0.0629
     38 O5         -0.8320    1.6945   -9.3250 O.3       1 <0>        -0.3850
     39 C28        -0.2808    0.6178   -8.5618 C.3       1 <0>         0.0638
     40 C29        -1.4196   -0.2339   -7.9946 C.3       1 <0>         0.0129
     41 H1          0.7626    2.2342   -0.3112 H         1 <0>         0.0779
     42 H2         -1.0037    2.3490   -0.4991 H         1 <0>         0.0669
     43 H3         -0.2911    2.1678    1.1219 H         1 <0>         0.0725
     44 H4         -1.0085   -2.4585   -1.5052 H         1 <0>         0.2082
     45 H5          1.0427   -3.7484    2.8084 H         1 <0>         0.2043
     46 H6          0.5979    1.1093    3.4837 H         1 <0>         0.4229
     47 H7          2.5705    0.1926    0.6083 H         1 <0>         0.1290
     48 H8          4.1753    1.6852   -0.5106 H         1 <0>         0.1360
     49 H9          3.1404    4.8288    2.1937 H         1 <0>         0.1352
     50 H10         1.5266    3.3416    3.3069 H         1 <0>         0.1344
     51 H11         5.3218    3.2869    2.5233 H         1 <0>         0.1356
     52 H12         7.3798    3.8870    3.7321 H         1 <0>         0.1279
     53 H13         8.9985    5.4389    2.7202 H         1 <0>         0.1285
     54 H14         8.5664    6.3976    0.4950 H         1 <0>         0.1366
     55 H15         7.5601    7.6483   -0.8439 H         1 <0>         0.0555
     56 H16         8.4020    6.2707   -1.5934 H         1 <0>         0.0555
     57 H17         7.1369    7.1384   -2.4960 H         1 <0>         0.1019
     58 H18        -1.3905    1.1954   -2.4195 H         1 <0>         0.4228
     59 H19        -2.0143   -1.5944   -5.7247 H         1 <0>         0.0713
     60 H20        -3.6221   -1.5715   -4.9613 H         1 <0>         0.0772
     61 H21        -3.7887   -0.8681   -7.3189 H         1 <0>         0.0672
     62 H22        -4.1788    0.4944   -6.2419 H         1 <0>         0.0897
     63 H23        -3.4433    1.2982   -8.8272 H         1 <0>         0.0443
     64 H24        -3.4916    2.3458   -7.3880 H         1 <0>         0.0889
     65 H25        -2.1016    3.3232   -9.2258 H         1 <0>         0.0992
     66 H26        -1.1482    3.0034   -7.7562 H         1 <0>         0.0614
     67 H27         0.3494    0.0021   -9.2035 H         1 <0>         0.0991
     68 H28         0.3155    1.0201   -7.7429 H         1 <0>         0.0609
     69 H29        -1.0061   -1.0220   -7.3654 H         1 <0>         0.0863
     70 H30        -1.9836   -0.6796   -8.8140 H         1 <0>         0.0458
@<TRIPOS>BOND
     1    1    2 1
     2    1   41 1
     3    1   42 1
     4    1   43 1
     5    2    6 2
     6    2    3 1
     7    3    4 2
     8    3   29 1
     9    4    5 1
    10    4   44 1
    11    5   10 1
    12    5    6 1
    13    6    7 1
    14    7    8 2
    15    7   13 1
    16    8    9 1
    17    8   11 1
    18    9   10 2
    19    9   45 1
    20   11   12 3
    21   13   14 1
    22   13   46 1
    23   14   19 ar
    24   14   15 ar
    25   15   16 ar
    26   15   47 1
    27   16   17 ar
    28   16   48 1
    29   17   18 ar
    30   17   20 1
    31   18   19 ar
    32   18   49 1
    33   19   50 1
    34   20   21 1
    35   21   26 ar
    36   21   22 ar
    37   22   23 ar
    38   22   51 1
    39   23   24 ar
    40   23   52 1
    41   24   25 ar
    42   24   53 1
    43   25   26 ar
    44   25   54 1
    45   26   27 1
    46   27   28 1
    47   28   55 1
    48   28   56 1
    49   28   57 1
    50   29   30 am
    51   29   58 1
    52   30   31 2
    53   30   32 1
    54   32   33 1
    55   33   34 1
    56   33   59 1
    57   33   60 1
    58   34   35 1
    59   34   61 1
    60   34   62 1
    61   35   40 1
    62   35   36 1
    63   36   37 1
    64   36   63 1
    65   36   64 1
    66   37   38 1
    67   37   65 1
    68   37   66 1
    69   38   39 1
    70   39   40 1
    71   39   67 1
    72   39   68 1
    73   40   69 1
    74   40   70 1
@<TRIPOS>MOLECULE
CHEMBL265786__1
   71    75     0     0     0
SMALL
USER_CHARGES

@<TRIPOS>ATOM
      1 C1         -0.0355    1.1102    0.3153 C.3       1 <0>        -0.0916
      2 C2         -0.1569   -0.3838    0.1601 C.2       1 <0>        -0.0961
      3 C3         -0.7234   -1.0649   -0.9220 C.2       1 <0>         0.0811
      4 C4         -0.6335   -2.4010   -0.6680 C.2       1 <0>         0.0550
      5 N1         -0.0302   -2.5829    0.5363 N.pl3     1 <0>        -0.2459
      6 C5          0.2768   -1.3444    1.0599 C.2       1 <0>        -0.0316
      7 C6          0.9209   -1.2586    2.3128 C.2       1 <0>         0.3399
      8 C7          1.2335   -2.4452    2.9885 C.2       1 <0>        -0.1425
      9 C8          0.8977   -3.6871    2.4009 C.2       1 <0>         0.1892
     10 N2          0.2958   -3.7439    1.2485 N.2       1 <0>        -0.2643
     11 C9          1.8874   -2.4013    4.2618 C.1       1 <0>         0.2537
     12 N3          2.4060   -2.3665    5.2718 N.1       1 <0>        -0.3889
     13 N4          1.2367   -0.0305    2.8610 N.pl3     1 <0>        -0.6847
     14 C10         2.1484    0.8109    2.2140 C.ar      1 <0>         0.1924
     15 C11         2.8720    0.3442    1.1241 C.ar      1 <0>        -0.1528
     16 C12         3.7715    1.1751    0.4862 C.ar      1 <0>        -0.0793
     17 C13         3.9530    2.4758    0.9338 C.ar      1 <0>         0.0531
     18 C14         3.2305    2.9428    2.0225 C.ar      1 <0>        -0.0900
     19 C15         2.3261    2.1151    2.6577 C.ar      1 <0>        -0.1516
     20 O1          4.8395    3.2930    0.3057 O.3       1 <0>        -0.2460
     21 C16         6.0145    3.5634    0.9342 C.ar      1 <0>         0.0883
     22 C17         6.3296    2.9240    2.1229 C.ar      1 <0>        -0.1572
     23 C18         7.5248    3.1998    2.7602 C.ar      1 <0>        -0.1182
     24 C19         8.4081    4.1129    2.2147 C.ar      1 <0>        -0.1079
     25 C20         8.1001    4.7542    1.0294 C.ar      1 <0>        -0.1743
     26 C21         6.9062    4.4787    0.3825 C.ar      1 <0>         0.1052
     27 O2          6.6040    5.1048   -0.7862 O.3       1 <0>        -0.3085
     28 C22         7.5663    6.0315   -1.2934 C.3       1 <0>         0.0251
     29 N5         -1.2858   -0.4760   -2.0685 N.am      1 <0>        -0.6065
     30 C23        -1.8001   -1.2533   -3.0421 C.2       1 <0>         0.6547
     31 O3         -1.7779   -2.4630   -2.9291 O.2       1 <0>        -0.5396
     32 O4         -2.3386   -0.6893   -4.1399 O.3       1 <0>        -0.3782
     33 C24        -2.8652   -1.5733   -5.1315 C.3       1 <0>         0.0521
     34 C25        -3.4297   -0.7561   -6.2953 C.3       1 <0>        -0.0013
     35 N6         -2.3388   -0.0281   -6.9570 N.4       1 <0>        -0.3882
     36 C26        -2.8964    0.8624   -7.9843 C.3       1 <0>        -0.0438
     37 C27        -1.7579    1.6200   -8.6720 C.3       1 <0>         0.0353
     38 O5         -0.8383    0.6800   -9.2345 O.3       1 <0>        -0.3555
     39 C28        -0.2855   -0.2261   -8.2757 C.3       1 <0>         0.0372
     40 C29        -1.4212   -0.9871   -7.5873 C.3       1 <0>        -0.0517
     41 H1          0.9246    1.4399   -0.0818 H         1 <0>         0.0794
     42 H2         -0.8419    1.5990   -0.2313 H         1 <0>         0.0646
     43 H3         -0.1012    1.3724    1.3713 H         1 <0>         0.0763
     44 H4         -0.9850   -3.1881   -1.3186 H         1 <0>         0.2055
     45 H5          1.1380   -4.6029    2.9205 H         1 <0>         0.2086
     46 H6          0.8264    0.2486    3.6945 H         1 <0>         0.4247
     47 H7          2.7314   -0.6684    0.7760 H         1 <0>         0.1271
     48 H8          4.3342    0.8123   -0.3613 H         1 <0>         0.1350
     49 H9          3.3723    3.9553    2.3704 H         1 <0>         0.1367
     50 H10         1.7603    2.4802    3.5021 H         1 <0>         0.1358
     51 H11         5.6412    2.2106    2.5513 H         1 <0>         0.1340
     52 H12         7.7689    2.7011    3.6866 H         1 <0>         0.1292
     53 H13         9.3408    4.3258    2.7160 H         1 <0>         0.1304
     54 H14         8.7918    5.4673    0.6057 H         1 <0>         0.1378
     55 H15         7.7220    6.8283   -0.5660 H         1 <0>         0.0568
     56 H16         8.5089    5.5146   -1.4733 H         1 <0>         0.0564
     57 H17         7.2021    6.4587   -2.2277 H         1 <0>         0.1016
     58 H18        -1.3035    0.4896   -2.1587 H         1 <0>         0.4236
     59 H19        -2.0709   -2.2245   -5.4964 H         1 <0>         0.0971
     60 H20        -3.6590   -2.1787   -4.6939 H         1 <0>         0.1217
     61 H21        -3.9068   -1.4253   -7.0114 H         1 <0>         0.1560
     62 H22        -4.1643   -0.0451   -5.9173 H         1 <0>         0.1469
     63 H23        -3.4381    0.2713   -8.7227 H         1 <0>         0.1411
     64 H24        -3.5772    1.5744   -7.5177 H         1 <0>         0.1446
     65 H25        -2.1652    2.2490   -9.4635 H         1 <0>         0.1434
     66 H26        -1.2411    2.2421   -7.9413 H         1 <0>         0.0819
     67 H27         0.3729   -0.9332   -8.7805 H         1 <0>         0.1433
     68 H28         0.2817    0.3329   -7.5315 H         1 <0>         0.0817
     69 H29        -1.0069   -1.6481   -6.8260 H         1 <0>         0.1411
     70 H30        -1.9634   -1.5775   -8.3259 H         1 <0>         0.1432
     71 H31        -1.8366    0.5190   -6.2739 H         1 <0>         0.4284
@<TRIPOS>BOND
     1    1    2 1
     2    1   41 1
     3    1   42 1
     4    1   43 1
     5    2    6 2
     6    2    3 1
     7    3    4 2
     8    3   29 1
     9    4    5 1
    10    4   44 1
    11    5   10 1
    12    5    6 1
    13    6    7 1
    14    7    8 2
    15    7   13 1
    16    8    9 1
    17    8   11 1
    18    9   10 2
    19    9   45 1
    20   11   12 3
    21   13   14 1
    22   13   46 1
    23   14   19 ar
    24   14   15 ar
    25   15   16 ar
    26   15   47 1
    27   16   17 ar
    28   16   48 1
    29   17   18 ar
    30   17   20 1
    31   18   19 ar
    32   18   49 1
    33   19   50 1
    34   20   21 1
    35   21   26 ar
    36   21   22 ar
    37   22   23 ar
    38   22   51 1
    39   23   24 ar
    40   23   52 1
    41   24   25 ar
    42   24   53 1
    43   25   26 ar
    44   25   54 1
    45   26   27 1
    46   27   28 1
    47   28   55 1
    48   28   56 1
    49   28   57 1
    50   29   30 am
    51   29   58 1
    52   30   31 2
    53   30   32 1
    54   32   33 1
    55   33   34 1
    56   33   59 1
    57   33   60 1
    58   34   35 1
    59   34   61 1
    60   34   62 1
    61   35   40 1
    62   35   36 1
    63   35   71 1
    64   36   37 1
    65   36   63 1
    66   36   64 1
    67   37   38 1
    68   37   65 1
    69   37   66 1
    70   38   39 1
    71   39   40 1
    72   39   67 1
    73   39   68 1
    74   40   69 1
    75   40   70 1
@<TRIPOS>MOLECULE
CHEMBL30551
   73    77     0     0     0
SMALL
USER_CHARGES

@<TRIPOS>ATOM
      1 C1         -4.3089    1.3482    4.7909 C.3       1 <0>         0.0228
      2 O1         -4.3110   -0.0808    4.7876 O.3       1 <0>        -0.2982
      3 C2         -4.4401   -0.6952    3.5814 C.ar      1 <0>         0.1255
      4 C3         -4.5541    0.0572    2.4479 C.ar      1 <0>        -0.1557
      5 C4         -4.6874   -0.5737    1.2023 C.ar      1 <0>        -0.1006
      6 C5         -4.7033   -1.9874    1.1242 C.ar      1 <0>         0.1668
      7 C6         -4.5850   -2.7387    2.3034 C.ar      1 <0>        -0.1783
      8 C7         -4.4492   -2.0952    3.5126 C.ar      1 <0>         0.1593
      9 O2         -4.3284   -2.8248    4.6522 O.3       1 <0>        -0.2925
     10 C8         -4.3446   -4.2472    4.5167 C.3       1 <0>         0.0549
     11 C9         -4.1981   -4.8927    5.8961 C.3       1 <0>        -0.1159
     12 C10        -4.2154   -6.4157    5.7509 C.3       1 <0>         0.0586
     13 N1         -4.0747   -7.0354    7.0754 N.3       1 <0>        -0.5363
     14 C11        -2.7488   -6.7603    7.6476 C.3       1 <0>         0.0125
     15 C12        -2.6667   -7.3720    9.0487 C.3       1 <0>         0.0624
     16 O3         -2.9417   -8.7732    8.9686 O.3       1 <0>        -0.3853
     17 C13        -4.2254   -9.0772    8.4163 C.3       1 <0>         0.0626
     18 C14        -4.3233   -8.4829    7.0089 C.3       1 <0>         0.0174
     19 N2         -4.8296   -2.5969   -0.0638 N.ar      1 <0>        -0.4639
     20 C15        -4.9414   -1.9237   -1.1803 C.ar      1 <0>         0.1797
     21 C16        -4.9349   -0.5196   -1.1968 C.ar      1 <0>        -0.0919
     22 C17        -4.8069    0.1808    0.0122 C.ar      1 <0>         0.2693
     23 N3         -4.7969    1.5612    0.0390 N.pl3     1 <0>        -0.7078
     24 C18        -5.9843    2.2643    0.2582 C.ar      1 <0>         0.1979
     25 C19        -7.1490    1.5799    0.5825 C.ar      1 <0>        -0.1756
     26 C20        -8.3208    2.2779    0.7985 C.ar      1 <0>        -0.0705
     27 C21        -8.3359    3.6566    0.6917 C.ar      1 <0>        -0.1231
     28 C22        -7.1784    4.3411    0.3691 C.ar      1 <0>        -0.0715
     29 C23        -6.0017    3.6498    0.1579 C.ar      1 <0>        -0.1740
     30 C24        -9.6169    4.4149    0.9271 C.3       1 <0>        -0.0689
     31 C25        -9.7265    4.7835    2.4080 C.3       1 <0>        -0.0742
     32 C26       -11.0074    5.5417    2.6434 C.ar      1 <0>        -0.0827
     33 C27       -11.0256    6.9194    2.5316 C.ar      1 <0>        -0.1181
     34 C28       -12.2006    7.6149    2.7475 C.ar      1 <0>        -0.1182
     35 C29       -13.3575    6.9327    3.0748 C.ar      1 <0>        -0.1252
     36 C30       -13.3395    5.5549    3.1857 C.ar      1 <0>        -0.1179
     37 C31       -12.1655    4.8591    2.9656 C.ar      1 <0>        -0.1179
     38 C32        -5.0581    0.1900   -2.4345 C.1       1 <0>         0.2560
     39 N4         -5.1559    0.7529   -3.4164 N.1       1 <0>        -0.3967
     40 H1         -4.1996    1.7090    5.8136 H         1 <0>         0.1067
     41 H2         -3.4777    1.7116    4.1866 H         1 <0>         0.0578
     42 H3         -5.2477    1.7138    4.3750 H         1 <0>         0.0597
     43 H4         -4.5421    1.1353    2.5102 H         1 <0>         0.1486
     44 H5         -4.5953   -3.8179    2.2618 H         1 <0>         0.1557
     45 H6         -5.2879   -4.5588    4.0681 H         1 <0>         0.0709
     46 H7         -3.5180   -4.5609    3.8791 H         1 <0>         0.0683
     47 H8         -3.2547   -4.5812    6.3446 H         1 <0>         0.0765
     48 H9         -5.0246   -4.5790    6.5336 H         1 <0>         0.0864
     49 H10        -5.1587   -6.7272    5.3024 H         1 <0>         0.0817
     50 H11        -3.3888   -6.7294    5.1134 H         1 <0>         0.0405
     51 H12        -1.9799   -7.2005    7.0127 H         1 <0>         0.0446
     52 H13        -2.5962   -5.6829    7.7113 H         1 <0>         0.0905
     53 H14        -1.6664   -7.2200    9.4541 H         1 <0>         0.0992
     54 H15        -3.3999   -6.8937    9.6982 H         1 <0>         0.0611
     55 H16        -4.3524  -10.1586    8.3645 H         1 <0>         0.0997
     56 H17        -5.0039   -8.6486    9.0474 H         1 <0>         0.0611
     57 H18        -5.3201   -8.6629    6.6063 H         1 <0>         0.0883
     58 H19        -3.5796   -8.9506    6.3637 H         1 <0>         0.0448
     59 H20        -5.0408   -2.4610   -2.1118 H         1 <0>         0.1731
     60 H21        -3.9656    2.0429   -0.0943 H         1 <0>         0.4167
     61 H22        -7.1380    0.5031    0.6653 H         1 <0>         0.1186
     62 H23        -9.2266    1.7465    1.0506 H         1 <0>         0.1231
     63 H24        -7.1938    5.4178    0.2862 H         1 <0>         0.1243
     64 H25        -5.0970    4.1854   -0.0893 H         1 <0>         0.1233
     65 H26        -9.6169    5.3238    0.3255 H         1 <0>         0.0719
     66 H27       -10.4652    3.7918    0.6440 H         1 <0>         0.0717
     67 H28        -9.7265    3.8746    3.0097 H         1 <0>         0.0729
     68 H29        -8.8782    5.4066    2.6911 H         1 <0>         0.0730
     69 H30       -10.1218    7.4524    2.2759 H         1 <0>         0.1206
     70 H31       -12.2146    8.6914    2.6609 H         1 <0>         0.1213
     71 H32       -14.2753    7.4762    3.2442 H         1 <0>         0.1207
     72 H33       -14.2432    5.0220    3.4418 H         1 <0>         0.1214
     73 H34       -12.1523    3.7823    3.0486 H         1 <0>         0.1207
@<TRIPOS>BOND
     1    1    2 1
     2    1   40 1
     3    1   41 1
     4    1   42 1
     5    2    3 1
     6    3    8 ar
     7    3    4 ar
     8    4    5 ar
     9    4   43 1
    10    5   22 ar
    11    5    6 ar
    12    6    7 ar
    13    6   19 ar
    14    7    8 ar
    15    7   44 1
    16    8    9 1
    17    9   10 1
    18   10   11 1
    19   10   45 1
    20   10   46 1
    21   11   12 1
    22   11   47 1
    23   11   48 1
    24   12   13 1
    25   12   49 1
    26   12   50 1
    27   13   18 1
    28   13   14 1
    29   14   15 1
    30   14   51 1
    31   14   52 1
    32   15   16 1
    33   15   53 1
    34   15   54 1
    35   16   17 1
    36   17   18 1
    37   17   55 1
    38   17   56 1
    39   18   57 1
    40   18   58 1
    41   19   20 ar
    42   20   21 ar
    43   20   59 1
    44   21   22 ar
    45   21   38 1
    46   22   23 1
    47   23   24 1
    48   23   60 1
    49   24   29 ar
    50   24   25 ar
    51   25   26 ar
    52   25   61 1
    53   26   27 ar
    54   26   62 1
    55   27   28 ar
    56   27   30 1
    57   28   29 ar
    58   28   63 1
    59   29   64 1
    60   30   31 1
    61   30   65 1
    62   30   66 1
    63   31   32 1
    64   31   67 1
    65   31   68 1
    66   32   37 ar
    67   32   33 ar
    68   33   34 ar
    69   33   69 1
    70   34   35 ar
    71   34   70 1
    72   35   36 ar
    73   35   71 1
    74   36   37 ar
    75   36   72 1
    76   37   73 1
    77   38   39 3
@<TRIPOS>MOLECULE
CHEMBL30551__1
   74    78     0     0     0
SMALL
USER_CHARGES

@<TRIPOS>ATOM
      1 C1          6.2687    1.5106    1.3365 C.3       1 <0>         0.0215
      2 O1          6.3028    0.0820    1.3450 O.3       1 <0>        -0.3024
      3 C2          5.3384   -0.5542    2.0621 C.ar      1 <0>         0.1222
      4 C3          4.3951    0.1770    2.7249 C.ar      1 <0>        -0.1469
      5 C4          3.3991   -0.4765    3.4652 C.ar      1 <0>        -0.0971
      6 C5          3.3749   -1.8910    3.5230 C.ar      1 <0>         0.1613
      7 C6          4.3556   -2.6204    2.8336 C.ar      1 <0>        -0.1704
      8 C7          5.3185   -1.9550    2.1092 C.ar      1 <0>         0.1489
      9 O2          6.2631   -2.6635    1.4374 O.3       1 <0>        -0.2942
     10 C8          6.1896   -4.0879    1.5241 C.3       1 <0>         0.0566
     11 C9          7.3269   -4.7079    0.7098 C.3       1 <0>        -0.1505
     12 C10         7.2481   -6.2330    0.8028 C.3       1 <0>        -0.0060
     13 N1          8.3401   -6.8283    0.0209 N.4       1 <0>        -0.3843
     14 C11         8.1503   -6.5162   -1.4023 C.3       1 <0>        -0.0502
     15 C12         9.2894   -7.1373   -2.2147 C.3       1 <0>         0.0361
     16 O3          9.3169   -8.5488   -1.9855 O.3       1 <0>        -0.3563
     17 C13         9.4761   -8.9037   -0.6091 C.3       1 <0>         0.0355
     18 C14         8.3374   -8.2859    0.2063 C.3       1 <0>        -0.0433
     19 N2          2.4247   -2.5221    4.2285 N.ar      1 <0>        -0.4667
     20 C15         1.4970   -1.8697    4.8811 C.ar      1 <0>         0.1849
     21 C16         1.4442   -0.4665    4.8788 C.ar      1 <0>        -0.0818
     22 C17         2.4094    0.2558    4.1610 C.ar      1 <0>         0.2720
     23 N3          2.3930    1.6362    4.1342 N.pl3     1 <0>        -0.7098
     24 C18         3.1585    2.3620    5.0505 C.ar      1 <0>         0.1937
     25 C19         4.0385    1.7024    5.8994 C.ar      1 <0>        -0.1768
     26 C20         4.7935    2.4228    6.8038 C.ar      1 <0>        -0.0716
     27 C21         4.6741    3.7991    6.8655 C.ar      1 <0>        -0.1187
     28 C22         3.7991    4.4589    6.0220 C.ar      1 <0>        -0.0704
     29 C23         3.0455    3.7453    5.1109 C.ar      1 <0>        -0.1711
     30 C24         5.4990    4.5818    7.8545 C.3       1 <0>        -0.0712
     31 C25         6.8267    4.9816    7.2078 C.3       1 <0>        -0.0723
     32 C26         7.6516    5.7642    8.1968 C.ar      1 <0>        -0.0851
     33 C27         7.5293    7.1395    8.2636 C.ar      1 <0>        -0.1176
     34 C28         8.2859    7.8575    9.1708 C.ar      1 <0>        -0.1170
     35 C29         9.1645    7.2000   10.0115 C.ar      1 <0>        -0.1236
     36 C30         9.2862    5.8246    9.9452 C.ar      1 <0>        -0.1179
     37 C31         8.5264    5.1063    9.0410 C.ar      1 <0>        -0.1187
     38 C32         0.4163    0.2201    5.6019 C.1       1 <0>         0.2481
     39 N4         -0.3991    0.7647    6.1754 N.1       1 <0>        -0.3839
     40 H1          6.3686    1.8825    2.3563 H         1 <0>         0.0620
     41 H2          7.0906    1.8901    0.7293 H         1 <0>         0.1085
     42 H3          5.3211    1.8490    0.9176 H         1 <0>         0.0602
     43 H4          4.4160    1.2559    2.6795 H         1 <0>         0.1516
     44 H5          4.3518   -3.6999    2.8671 H         1 <0>         0.1531
     45 H6          6.2804   -4.3936    2.5664 H         1 <0>         0.0789
     46 H7          5.2324   -4.4271    1.1281 H         1 <0>         0.0785
     47 H8          7.2360   -4.4022   -0.3325 H         1 <0>         0.1004
     48 H9          8.2841   -4.3687    1.1058 H         1 <0>         0.1014
     49 H10         7.3390   -6.5387    1.8451 H         1 <0>         0.1384
     50 H11         6.2909   -6.5722    0.4068 H         1 <0>         0.1362
     51 H12         7.1979   -6.9247   -1.7403 H         1 <0>         0.1408
     52 H13         8.1523   -5.4351   -1.5410 H         1 <0>         0.1447
     53 H14         9.1277   -6.9438   -3.2752 H         1 <0>         0.1427
     54 H15        10.2383   -6.6996   -1.9047 H         1 <0>         0.0819
     55 H16         9.4496   -9.9886   -0.5074 H         1 <0>         0.1430
     56 H17        10.4314   -8.5265   -0.2441 H         1 <0>         0.0819
     57 H18         8.4782   -8.5185    1.2618 H         1 <0>         0.1442
     58 H19         7.3849   -8.6937   -0.1323 H         1 <0>         0.1403
     59 H20         0.7536   -2.4240    5.4348 H         1 <0>         0.1763
     60 H21         1.8500    2.1021    3.4792 H         1 <0>         0.4182
     61 H22         4.1317    0.6275    5.8522 H         1 <0>         0.1165
     62 H23         5.4778    1.9106    7.4640 H         1 <0>         0.1232
     63 H24         3.7080    5.5338    6.0730 H         1 <0>         0.1264
     64 H25         2.3659    4.2616    4.4491 H         1 <0>         0.1247
     65 H26         4.9552    5.4784    8.1521 H         1 <0>         0.0737
     66 H27         5.6934    3.9664    8.7329 H         1 <0>         0.0725
     67 H28         7.3704    4.0850    6.9102 H         1 <0>         0.0713
     68 H29         6.6322    5.5969    6.3294 H         1 <0>         0.0728
     69 H30         6.8428    7.6532    7.6068 H         1 <0>         0.1208
     70 H31         8.1909    8.9320    9.2225 H         1 <0>         0.1224
     71 H32         9.7562    7.7610   10.7197 H         1 <0>         0.1219
     72 H33         9.9728    5.3110   10.6018 H         1 <0>         0.1216
     73 H34         8.6187    4.0314    8.9918 H         1 <0>         0.1195
     74 H35         9.2222   -6.4510    0.3335 H         1 <0>         0.4247
@<TRIPOS>BOND
     1    1    2 1
     2    1   40 1
     3    1   41 1
     4    1   42 1
     5    2    3 1
     6    3    8 ar
     7    3    4 ar
     8    4    5 ar
     9    4   43 1
    10    5   22 ar
    11    5    6 ar
    12    6    7 ar
    13    6   19 ar
    14    7    8 ar
    15    7   44 1
    16    8    9 1
    17    9   10 1
    18   10   11 1
    19   10   45 1
    20   10   46 1
    21   11   12 1
    22   11   47 1
    23   11   48 1
    24   12   13 1
    25   12   49 1
    26   12   50 1
    27   13   18 1
    28   13   14 1
    29   13   74 1
    30   14   15 1
    31   14   51 1
    32   14   52 1
    33   15   16 1
    34   15   53 1
    35   15   54 1
    36   16   17 1
    37   17   18 1
    38   17   55 1
    39   17   56 1
    40   18   57 1
    41   18   58 1
    42   19   20 ar
    43   20   21 ar
    44   20   59 1
    45   21   22 ar
    46   21   38 1
    47   22   23 1
    48   23   24 1
    49   23   60 1
    50   24   29 ar
    51   24   25 ar
    52   25   26 ar
    53   25   61 1
    54   26   27 ar
    55   26   62 1
    56   27   28 ar
    57   27   30 1
    58   28   29 ar
    59   28   63 1
    60   29   64 1
    61   30   31 1
    62   30   65 1
    63   30   66 1
    64   31   32 1
    65   31   67 1
    66   31   68 1
    67   32   37 ar
    68   32   33 ar
    69   33   34 ar
    70   33   69 1
    71   34   35 ar
    72   34   70 1
    73   35   36 ar
    74   35   71 1
    75   36   37 ar
    76   36   72 1
    77   37   73 1
    78   38   39 3
@<TRIPOS>MOLECULE
CHEMBL375609
   37    38     0     0     0
SMALL
USER_CHARGES

@<TRIPOS>ATOM
      1 C1         -0.0688    1.7069   -0.1357 C.3       1 <0>        -0.1747
      2 C2         -0.0924    0.1778   -0.0874 C.3       1 <0>         0.0972
      3 C3         -1.5425   -0.3103   -0.0951 C.3       1 <0>         0.0646
      4 O1         -2.2578    0.3048    0.9782 O.3       1 <0>        -0.5691
      5 N1          0.5713   -0.2824    1.1348 N.pl3     1 <0>        -0.5965
      6 C4          1.8706   -0.4267    1.1585 C.cat     1 <0>         0.6194
      7 C5          2.5369   -0.8888    2.3855 C.2       1 <0>        -0.3529
      8 C6          1.8548   -1.0795    3.5863 C.2       1 <0>         0.5442
      9 N2          2.5893   -1.5056    4.6307 N.am      1 <0>        -0.7217
     10 S1          4.1431   -1.6480    4.0309 S.3       1 <0>         0.5539
     11 C7          3.9040   -1.1775    2.4392 C.2       1 <0>         0.1707
     12 N3          4.8319   -1.0932    1.4283 N.pl3     1 <0>        -0.6348
     13 C8          5.5621   -2.2254    1.0531 C.ar      1 <0>         0.1698
     14 C9          5.4046   -3.4172    1.7489 C.ar      1 <0>        -0.1586
     15 C10         6.1269   -4.5340    1.3765 C.ar      1 <0>        -0.0484
     16 C11         7.0073   -4.4675    0.3122 C.ar      1 <0>        -0.1090
     17 C12         7.1680   -3.2823   -0.3837 C.ar      1 <0>         0.0090
     18 C13         6.4426   -2.1620   -0.0200 C.ar      1 <0>        -0.0732
     19 Cl1         6.6376   -0.6772   -0.8980 Cl        1 <0>        -0.0312
     20 Cl2         8.2751   -3.2033   -1.7185 Cl        1 <0>        -0.0163
     21 O2          0.6563   -0.8710    3.6853 O.2       1 <0>        -0.5079
     22 N4          2.6166   -0.1455    0.0325 N.pl3     1 <0>        -0.8086
     23 H1          0.9642    2.0547   -0.1302 H         1 <0>         0.0636
     24 H2         -0.5626    2.0494   -1.0450 H         1 <0>         0.0954
     25 H3         -0.5912    2.1060    0.7338 H         1 <0>         0.0898
     26 H4          0.4299   -0.2212   -0.9568 H         1 <0>         0.1155
     27 H5         -2.0103   -0.0445   -1.0430 H         1 <0>         0.0859
     28 H6         -1.5620   -1.3931    0.0287 H         1 <0>         0.0650
     29 H7         -3.1864    0.0407    1.0343 H         1 <0>         0.4002
     30 H8          4.9800   -0.2484    0.9752 H         1 <0>         0.4311
     31 H9          4.7180   -3.4705    2.5808 H         1 <0>         0.1394
     32 H10         6.0042   -5.4605    1.9177 H         1 <0>         0.1569
     33 H11         7.5709   -5.3425    0.0237 H         1 <0>         0.1572
     34 H12         2.1894    0.2397   -0.7485 H         1 <0>         0.4284
     35 H13         3.5682   -0.3330    0.0219 H         1 <0>         0.4226
     36 H14         0.0468   -0.4802    1.9265 H         1 <0>         0.4541
     37 H15         2.2843   -1.6891    5.5330 H         1 <0>         0.4689
@<TRIPOS>BOND
     1    1    2 1
     2    1   23 1
     3    1   24 1
     4    1   25 1
     5    2    3 1
     6    2    5 1
     7    2   26 1
     8    3    4 1
     9    3   27 1
    10    3   28 1
    11    4   29 1
    12    5    6 2
    13    5   36 1
    14    6    7 1
    15    6   22 1
    16    7   11 2
    17    7    8 1
    18    8    9 am
    19    8   21 2
    20    9   10 1
    21    9   37 1
    22   10   11 1
    23   11   12 1
    24   12   13 1
    25   12   30 1
    26   13   18 ar
    27   13   14 ar
    28   14   15 ar
    29   14   31 1
    30   15   16 ar
    31   15   32 1
    32   16   17 ar
    33   16   33 1
    34   17   18 ar
    35   17   20 1
    36   18   19 1
    37   22   34 1
    38   22   35 1
@<TRIPOS>MOLECULE
CHEMBL375609__1
   37    38     0     0     0
SMALL
USER_CHARGES

@<TRIPOS>ATOM
      1 C1          0.0867    1.4456    0.0488 C.3       1 <0>        -0.1734
      2 C2          0.1163   -0.0839    0.0224 C.3       1 <0>         0.0987
      3 C3          0.8846   -0.6003    1.2406 C.3       1 <0>         0.0643
      4 O1          0.3068   -0.0620    2.4315 O.3       1 <0>        -0.5696
      5 N1         -1.2547   -0.5994    0.0553 N.pl3     1 <0>        -0.5968
      6 C4         -1.9352   -0.7184   -1.0548 C.cat     1 <0>         0.6197
      7 C5         -3.3115   -1.2359   -1.0218 C.2       1 <0>        -0.3528
      8 C6         -3.9054   -1.7209    0.1424 C.2       1 <0>         0.5446
      9 N2         -5.1713   -2.1642    0.0285 N.am      1 <0>        -0.7217
     10 S1         -5.5590   -1.9414   -1.5822 S.3       1 <0>         0.5541
     11 C7         -4.1305   -1.2753   -2.1544 C.2       1 <0>         0.1707
     12 N3         -3.8342   -0.8674   -3.4334 N.pl3     1 <0>        -0.6347
     13 C8         -4.6148    0.1139   -4.0529 C.ar      1 <0>         0.1698
     14 C9         -5.7341    0.6231   -3.4072 C.ar      1 <0>        -0.1583
     15 C10        -6.5034    1.5920   -4.0210 C.ar      1 <0>        -0.0483
     16 C11        -6.1614    2.0560   -5.2780 C.ar      1 <0>        -0.1088
     17 C12        -5.0473    1.5515   -5.9255 C.ar      1 <0>         0.0090
     18 C13        -4.2689    0.5857   -5.3133 C.ar      1 <0>        -0.0729
     19 Cl1        -2.8664   -0.0416   -6.1217 Cl        1 <0>        -0.0316
     20 Cl2        -4.6223    2.1361   -7.5039 Cl        1 <0>        -0.0164
     21 O2         -3.3097   -1.7428    1.2074 O.2       1 <0>        -0.5088
     22 N4         -1.3623   -0.3583   -2.2571 N.pl3     1 <0>        -0.8086
     23 H1          1.1067    1.8291    0.0243 H         1 <0>         0.0948
     24 H2         -0.4607    1.8134   -0.8190 H         1 <0>         0.0645
     25 H3         -0.4069    1.7838    0.9599 H         1 <0>         0.0888
     26 H4          0.6099   -0.4221   -0.8887 H         1 <0>         0.1140
     27 H5          0.8301   -1.6885    1.2700 H         1 <0>         0.0654
     28 H6          1.9273   -0.2905    1.1705 H         1 <0>         0.0857
     29 H7          0.7446   -0.3477    3.2450 H         1 <0>         0.4004
     30 H8         -3.0837   -1.2601   -3.9061 H         1 <0>         0.4310
     31 H9         -6.0030    0.2612   -2.4258 H         1 <0>         0.1393
     32 H10        -7.3738    1.9878   -3.5187 H         1 <0>         0.1570
     33 H11        -6.7652    2.8135   -5.7555 H         1 <0>         0.1572
     34 H12        -0.4301   -0.0922   -2.2897 H         1 <0>         0.4279
     35 H13        -1.8916   -0.3714   -3.0698 H         1 <0>         0.4227
     36 H14        -1.6575   -0.8526    0.9006 H         1 <0>         0.4541
     37 H15        -5.7345   -2.5323    0.7272 H         1 <0>         0.4689
@<TRIPOS>BOND
     1    1    2 1
     2    1   23 1
     3    1   24 1
     4    1   25 1
     5    2    3 1
     6    2    5 1
     7    2   26 1
     8    3    4 1
     9    3   27 1
    10    3   28 1
    11    4   29 1
    12    5    6 2
    13    5   36 1
    14    6    7 1
    15    6   22 1
    16    7   11 2
    17    7    8 1
    18    8    9 am
    19    8   21 2
    20    9   10 1
    21    9   37 1
    22   10   11 1
    23   11   12 1
    24   12   13 1
    25   12   30 1
    26   13   18 ar
    27   13   14 ar
    28   14   15 ar
    29   14   31 1
    30   15   16 ar
    31   15   32 1
    32   16   17 ar
    33   16   33 1
    34   17   18 ar
    35   17   20 1
    36   18   19 1
    37   22   34 1
    38   22   35 1
@<TRIPOS>MOLECULE
CHEMBL535
   57    59     0     0     0
SMALL
USER_CHARGES

@<TRIPOS>ATOM
      1 C1          0.1489    2.0884    0.1150 C.3       1 <0>        -0.1876
      2 C2          0.1348    0.5603    0.1888 C.3       1 <0>        -0.0191
      3 N1         -1.2520    0.0881    0.2979 N.4       1 <0>        -0.3822
      4 C3         -1.9779    0.4111   -0.9377 C.3       1 <0>        -0.0142
      5 C4         -3.4549    0.0484   -0.7712 C.3       1 <0>        -0.1895
      6 C5         -1.2593   -1.3663    0.5041 C.3       1 <0>        -0.0265
      7 C6         -0.6131   -1.6936    1.8518 C.3       1 <0>         0.0952
      8 N2         -0.6203   -3.1440    2.0575 N.am      1 <0>        -0.7289
      9 C7         -0.0988   -3.6675    3.1846 C.2       1 <0>         0.6111
     10 O1          0.3779   -2.9358    4.0309 O.2       1 <0>        -0.5184
     11 C8         -0.1061   -5.1270    3.3915 C.2       1 <0>        -0.2420
     12 C9          0.9071   -6.0320    3.0089 C.2       1 <0>        -0.0577
     13 C10         0.4868   -7.2892    3.3960 C.2       1 <0>        -0.0075
     14 N3         -0.7476   -7.1595    3.9982 N.pl3     1 <0>        -0.4910
     15 H1         -1.2731   -7.8879    4.3645 H         1 <0>         0.4270
     16 C11        -1.1044   -5.8642    4.0022 C.2       1 <0>         0.1158
     17 C12        -2.3825   -5.3072    4.5743 C.3       1 <0>        -0.0999
     18 C13         1.1957   -8.4957    3.2079 C.2       1 <0>         0.0729
     19 C14         0.5100   -9.6674    2.9570 C.2       1 <0>        -0.1889
     20 C15         1.0648  -11.0377    2.8871 C.ar      1 <0>        -0.0736
     21 C16         2.3472  -11.5557    3.0375 C.ar      1 <0>        -0.1000
     22 C17         2.5553  -12.9162    2.9116 C.ar      1 <0>         0.0861
     23 C18         1.4888  -13.7593    2.6366 C.ar      1 <0>        -0.1139
     24 C19         0.2139  -13.2531    2.4856 C.ar      1 <0>        -0.1021
     25 C20        -0.0144  -11.8871    2.6092 C.ar      1 <0>         0.1282
     26 N4         -1.1765  -11.1301    2.5069 N.am      1 <0>        -0.6466
     27 C21        -0.9294   -9.8245    2.7079 C.2       1 <0>         0.5595
     28 O2         -1.7538   -8.9280    2.6842 O.2       1 <0>        -0.5156
     29 F1          3.7984  -13.4252    3.0561 F         1 <0>        -0.1318
     30 C22         2.1990   -5.6919    2.3116 C.3       1 <0>        -0.0931
     31 H2          1.1793    2.4435    0.1331 H         1 <0>         0.1076
     32 H3         -0.3308    2.4121   -0.8087 H         1 <0>         0.0811
     33 H4         -0.3916    2.4984    0.9682 H         1 <0>         0.0809
     34 H5          0.5888    0.1488   -0.7126 H         1 <0>         0.1317
     35 H6          0.6996    0.2334    1.0619 H         1 <0>         0.1337
     36 H7         -1.8867    1.4775   -1.1444 H         1 <0>         0.1351
     37 H8         -1.5554   -0.1571   -1.7664 H         1 <0>         0.1307
     38 H9         -3.5537   -1.0316   -0.6617 H         1 <0>         0.0802
     39 H10        -3.8523    0.5414    0.1160 H         1 <0>         0.0808
     40 H11        -4.0109    0.3769   -1.6492 H         1 <0>         0.1074
     41 H12        -2.2871   -1.7292    0.4963 H         1 <0>         0.1397
     42 H13        -0.6973   -1.8494   -0.2952 H         1 <0>         0.1376
     43 H14         0.4147   -1.3306    1.8596 H         1 <0>         0.0893
     44 H15        -1.1751   -1.2105    2.6511 H         1 <0>         0.0890
     45 H16        -1.0005   -3.7277    1.3824 H         1 <0>         0.4099
     46 H17        -3.1529   -5.3000    3.8032 H         1 <0>         0.0840
     47 H18        -2.7087   -5.9289    5.4080 H         1 <0>         0.0782
     48 H19        -2.2103   -4.2898    4.9254 H         1 <0>         0.0840
     49 H20         2.2744   -8.5020    3.2604 H         1 <0>         0.1589
     50 H21         3.1765  -10.8977    3.2512 H         1 <0>         0.1436
     51 H22         1.6578  -14.8215    2.5394 H         1 <0>         0.1485
     52 H23        -0.6084  -13.9196    2.2712 H         1 <0>         0.1415
     53 H24        -2.0541  -11.4980    2.3189 H         1 <0>         0.4217
     54 H25         2.9686   -5.4822    3.0545 H         1 <0>         0.0785
     55 H26         2.5107   -6.5337    1.6932 H         1 <0>         0.0726
     56 H27         2.0522   -4.8138    1.6827 H         1 <0>         0.0634
     57 H28        -1.7009    0.5410    1.0799 H         1 <0>         0.4247
@<TRIPOS>BOND
     1    1    2 1
     2    1   31 1
     3    1   32 1
     4    1   33 1
     5    2    3 1
     6    2   34 1
     7    2   35 1
     8    3    4 1
     9    3    6 1
    10    3   57 1
    11    4    5 1
    12    4   36 1
    13    4   37 1
    14    5   38 1
    15    5   39 1
    16    5   40 1
    17    6    7 1
    18    6   41 1
    19    6   42 1
    20    7    8 1
    21    7   43 1
    22    7   44 1
    23    8    9 am
    24    8   45 1
    25    9   10 2
    26    9   11 1
    27   11   16 2
    28   11   12 1
    29   12   13 2
    30   12   30 1
    31   13   14 1
    32   13   18 1
    33   14   15 1
    34   14   16 1
    35   16   17 1
    36   17   46 1
    37   17   47 1
    38   17   48 1
    39   18   19 2
    40   18   49 1
    41   19   27 1
    42   19   20 1
    43   20   25 ar
    44   20   21 ar
    45   21   22 ar
    46   21   50 1
    47   22   23 ar
    48   22   29 1
    49   23   24 ar
    50   23   51 1
    51   24   25 ar
    52   24   52 1
    53   25   26 1
    54   26   27 am
    55   26   53 1
    56   27   28 2
    57   30   54 1
    58   30   55 1
    59   30   56 1
@<TRIPOS>MOLECULE
CHEMBL386230
   48    50     0     0     0
SMALL
USER_CHARGES

@<TRIPOS>ATOM
      1 C1          0.4141   -3.5230   -1.1309 C.3       1 <0>        -0.1740
      2 C2          1.2081   -4.4129   -0.1725 C.3       1 <0>         0.0984
      3 C3          0.3807   -5.6515    0.1770 C.3       1 <0>         0.0643
      4 O1         -0.8881   -5.2463    0.6947 O.3       1 <0>        -0.5691
      5 N1          1.5094   -3.6657    1.0511 N.pl3     1 <0>        -0.5998
      6 C4          2.5602   -2.8892    1.1010 C.cat     1 <0>         0.6212
      7 C5          2.8627   -2.1391    2.3293 C.2       1 <0>        -0.3620
      8 C6          2.0091   -2.1239    3.4313 C.2       1 <0>         0.5442
      9 N2          2.4107   -1.3952    4.4894 N.am      1 <0>        -0.7240
     10 S1          3.8824   -0.7493    4.0299 S.3       1 <0>         0.5394
     11 C7          4.0323   -1.3891    2.4872 C.2       1 <0>         0.1799
     12 N3          5.0592   -1.2155    1.5903 N.pl3     1 <0>        -0.6314
     13 C8          6.3645   -1.5815    1.9411 C.ar      1 <0>         0.1303
     14 C9          6.6338   -2.0521    3.2199 C.ar      1 <0>        -0.1468
     15 C10         7.9204   -2.4130    3.5659 C.ar      1 <0>        -0.0818
     16 C11         8.9461   -2.3058    2.6347 C.ar      1 <0>        -0.1063
     17 C12         8.6764   -1.8355    1.3554 C.ar      1 <0>        -0.0585
     18 C13         7.3887   -1.4793    1.0084 C.ar      1 <0>        -0.1218
     19 S2         10.5887   -2.7659    3.0762 S.3       1 <0>         0.0170
     20 C14        10.4243   -3.4251    4.7020 C.ar      1 <0>        -0.1558
     21 C15        10.2785   -4.7948    4.8867 C.ar      1 <0>        -0.0627
     22 C16        10.1504   -5.3079    6.1622 C.ar      1 <0>        -0.1275
     23 C17        10.1671   -4.4606    7.2552 C.ar      1 <0>        -0.0827
     24 C18        10.3120   -3.0970    7.0752 C.ar      1 <0>        -0.1275
     25 C19        10.4459   -2.5772    5.8029 C.ar      1 <0>        -0.0664
     26 O2          0.9543   -2.7378    3.4363 O.2       1 <0>        -0.5124
     27 N4          3.3853   -2.7735    0.0012 N.pl3     1 <0>        -0.8091
     28 H1          1.0036   -2.6406   -1.3799 H         1 <0>         0.0635
     29 H2          0.1900   -4.0789   -2.0413 H         1 <0>         0.0944
     30 H3         -0.5167   -3.2156   -0.6544 H         1 <0>         0.0891
     31 H4          2.1389   -4.7203   -0.6490 H         1 <0>         0.1148
     32 H5          0.2319   -6.2538   -0.7192 H         1 <0>         0.0852
     33 H6          0.9079   -6.2407    0.9274 H         1 <0>         0.0644
     34 H7         -1.4667   -5.9819    0.9380 H         1 <0>         0.3999
     35 H8          4.8797   -0.8394    0.7144 H         1 <0>         0.4304
     36 H9          5.8366   -2.1354    3.9436 H         1 <0>         0.1251
     37 H10         8.1299   -2.7782    4.5604 H         1 <0>         0.1359
     38 H11         9.4735   -1.7518    0.6316 H         1 <0>         0.1444
     39 H12         7.1783   -1.1172    0.0129 H         1 <0>         0.1405
     40 H13        10.2651   -5.4570    4.0337 H         1 <0>         0.1336
     41 H14        10.0368   -6.3722    6.3065 H         1 <0>         0.1326
     42 H15        10.0664   -4.8647    8.2517 H         1 <0>         0.1318
     43 H16        10.3246   -2.4383    7.9309 H         1 <0>         0.1332
     44 H17        10.5635   -1.5128    5.6634 H         1 <0>         0.1341
     45 H18         3.1408   -3.1992   -0.8354 H         1 <0>         0.4269
     46 H19         4.2098   -2.2664    0.0647 H         1 <0>         0.4243
     47 H20         0.9293   -3.7471    1.8243 H         1 <0>         0.4535
     48 H21         1.9479   -1.2718    5.3329 H         1 <0>         0.4672
@<TRIPOS>BOND
     1    1    2 1
     2    1   28 1
     3    1   29 1
     4    1   30 1
     5    2    3 1
     6    2    5 1
     7    2   31 1
     8    3    4 1
     9    3   32 1
    10    3   33 1
    11    4   34 1
    12    5    6 2
    13    5   47 1
    14    6    7 1
    15    6   27 1
    16    7   11 2
    17    7    8 1
    18    8    9 am
    19    8   26 2
    20    9   10 1
    21    9   48 1
    22   10   11 1
    23   11   12 1
    24   12   13 1
    25   12   35 1
    26   13   18 ar
    27   13   14 ar
    28   14   15 ar
    29   14   36 1
    30   15   16 ar
    31   15   37 1
    32   16   17 ar
    33   16   19 1
    34   17   18 ar
    35   17   38 1
    36   18   39 1
    37   19   20 1
    38   20   25 ar
    39   20   21 ar
    40   21   22 ar
    41   21   40 1
    42   22   23 ar
    43   22   41 1
    44   23   24 ar
    45   23   42 1
    46   24   25 ar
    47   24   43 1
    48   25   44 1
    49   27   45 1
    50   27   46 1
@<TRIPOS>MOLECULE
CHEMBL386230__1
   48    50     0     0     0
SMALL
USER_CHARGES

@<TRIPOS>ATOM
      1 C1         -4.3796    4.0403   -0.7127 C.3       1 <0>        -0.1731
      2 C2         -3.2094    3.1615   -0.2665 C.3       1 <0>         0.1001
      3 C3         -2.6955    3.6470    1.0904 C.3       1 <0>         0.0642
      4 O1         -3.7752    3.6763    2.0260 O.3       1 <0>        -0.5696
      5 N1         -3.6589    1.7721   -0.1498 N.pl3     1 <0>        -0.6002
      6 C4         -3.6740    0.9990   -1.2043 C.cat     1 <0>         0.6215
      7 C5         -4.1252   -0.3958   -1.0871 C.2       1 <0>        -0.3619
      8 C6         -4.4407   -0.9845    0.1365 C.2       1 <0>         0.5446
      9 N2         -4.8406   -2.2692    0.0972 N.am      1 <0>        -0.7239
     10 S1         -4.7976   -2.6810   -1.5224 S.3       1 <0>         0.5395
     11 C7         -4.2777   -1.2356   -2.1948 C.2       1 <0>         0.1799
     12 N3         -4.0524   -0.9459   -3.5193 N.pl3     1 <0>        -0.6312
     13 C8         -5.0883   -1.0818   -4.4517 C.ar      1 <0>         0.1302
     14 C9         -6.3216   -1.5799   -4.0517 C.ar      1 <0>        -0.1465
     15 C10        -7.3429   -1.7139   -4.9706 C.ar      1 <0>        -0.0817
     16 C11        -7.1372   -1.3501   -6.2957 C.ar      1 <0>        -0.1061
     17 C12        -5.9035   -0.8513   -6.6955 C.ar      1 <0>        -0.0586
     18 C13        -4.8841   -0.7130   -5.7752 C.ar      1 <0>        -0.1217
     19 S2         -8.4405   -1.5216   -7.4691 S.3       1 <0>         0.0171
     20 C14        -9.8204   -2.0353   -6.5013 C.ar      1 <0>        -0.1559
     21 C15       -10.7302   -1.0956   -6.0315 C.ar      1 <0>        -0.0625
     22 C16       -11.8107   -1.5019   -5.2739 C.ar      1 <0>        -0.1274
     23 C17       -11.9882   -2.8422   -4.9823 C.ar      1 <0>        -0.0826
     24 C18       -11.0848   -3.7802   -5.4482 C.ar      1 <0>        -0.1276
     25 C19       -10.0049   -3.3818   -6.2109 C.ar      1 <0>        -0.0665
     26 O2         -4.3584   -0.3684    1.1869 O.2       1 <0>        -0.5134
     27 N4         -3.2666    1.4919   -2.4268 N.pl3     1 <0>        -0.8090
     28 H1         -4.0452    5.0741   -0.7996 H         1 <0>         0.0939
     29 H2         -4.7457    3.6945   -1.6794 H         1 <0>         0.0644
     30 H3         -5.1816    3.9785    0.0228 H         1 <0>         0.0879
     31 H4         -2.4074    3.2234   -1.0020 H         1 <0>         0.1134
     32 H5         -1.9217    2.9686    1.4497 H         1 <0>         0.0650
     33 H6         -2.2795    4.6489    0.9841 H         1 <0>         0.0850
     34 H7         -3.5217    3.9752    2.9100 H         1 <0>         0.4000
     35 H8         -3.1759   -0.6473   -3.8083 H         1 <0>         0.4302
     36 H9         -6.4815   -1.8627   -3.0217 H         1 <0>         0.1250
     37 H10        -8.3016   -2.1019   -4.6597 H         1 <0>         0.1359
     38 H11        -5.7433   -0.5688   -7.7255 H         1 <0>         0.1443
     39 H12        -3.9263   -0.3218   -6.0851 H         1 <0>         0.1404
     40 H13       -10.5921   -0.0488   -6.2585 H         1 <0>         0.1336
     41 H14       -12.5179   -0.7721   -4.9081 H         1 <0>         0.1327
     42 H15       -12.8340   -3.1571   -4.3892 H         1 <0>         0.1318
     43 H16       -11.2265   -4.8259   -5.2186 H         1 <0>         0.1332
     44 H17        -9.3023   -4.1153   -6.5781 H         1 <0>         0.1340
     45 H18        -2.8948    2.3856   -2.4899 H         1 <0>         0.4264
     46 H19        -3.3521    0.9448   -3.2232 H         1 <0>         0.4244
     47 H20        -3.9453    1.4255    0.7098 H         1 <0>         0.4535
     48 H21        -5.0970   -2.8322    0.8443 H         1 <0>         0.4672
@<TRIPOS>BOND
     1    1    2 1
     2    1   28 1
     3    1   29 1
     4    1   30 1
     5    2    3 1
     6    2    5 1
     7    2   31 1
     8    3    4 1
     9    3   32 1
    10    3   33 1
    11    4   34 1
    12    5    6 2
    13    5   47 1
    14    6    7 1
    15    6   27 1
    16    7   11 2
    17    7    8 1
    18    8    9 am
    19    8   26 2
    20    9   10 1
    21    9   48 1
    22   10   11 1
    23   11   12 1
    24   12   13 1
    25   12   35 1
    26   13   18 ar
    27   13   14 ar
    28   14   15 ar
    29   14   36 1
    30   15   16 ar
    31   15   37 1
    32   16   17 ar
    33   16   19 1
    34   17   18 ar
    35   17   38 1
    36   18   39 1
    37   19   20 1
    38   20   25 ar
    39   20   21 ar
    40   21   22 ar
    41   21   40 1
    42   22   23 ar
    43   22   41 1
    44   23   24 ar
    45   23   42 1
    46   24   25 ar
    47   24   43 1
    48   25   44 1
    49   27   45 1
    50   27   46 1
@<TRIPOS>MOLECULE
CHEMBL217117
   50    52     0     0     0
SMALL
USER_CHARGES

@<TRIPOS>ATOM
      1 C1          0.3043   -3.4256   -1.2174 C.3       1 <0>        -0.1743
      2 C2          1.0824   -4.3205   -0.2506 C.3       1 <0>         0.0978
      3 C3          0.2394   -5.5489    0.0979 C.3       1 <0>         0.0642
      4 O1         -1.0283   -5.1281    0.6058 O.3       1 <0>        -0.5692
      5 N1          1.3838   -3.5723    0.9723 N.pl3     1 <0>        -0.5970
      6 C4          2.4426   -2.8070    1.0262 C.cat     1 <0>         0.6198
      7 C5          2.7453   -2.0558    2.2539 C.2       1 <0>        -0.3537
      8 C6          1.8849   -2.0278    3.3505 C.2       1 <0>         0.5430
      9 N2          2.2878   -1.3001    4.4088 N.am      1 <0>        -0.7224
     10 S1          3.7692   -0.6715    3.9564 S.3       1 <0>         0.5585
     11 C7          3.9215   -1.3176    2.4165 C.2       1 <0>         0.1667
     12 N3          4.9559   -1.1576    1.5250 N.pl3     1 <0>        -0.6360
     13 C8          6.2529   -1.5361    1.8838 C.ar      1 <0>         0.2016
     14 C9          6.5116   -2.0056    3.1653 C.ar      1 <0>        -0.1933
     15 C10         7.7939   -2.3792    3.5164 C.ar      1 <0>         0.0288
     16 C11         8.8200   -2.2859    2.5940 C.ar      1 <0>        -0.6742
     17 C12         8.5659   -1.8190    1.3174 C.ar      1 <0>         0.0260
     18 C13         7.2848   -1.4491    0.9580 C.ar      1 <0>        -0.1664
     19 S2         10.4548   -2.7626    3.0465 S.o2      1 <0>         2.5805
     20 O2         11.3364   -2.0671    2.1756 O.2       1 <0>        -0.9270
     21 O3         10.5343   -2.6488    4.4607 O.2       1 <0>        -0.9276
     22 C14        10.6214   -4.4756    2.6689 C.ar      1 <0>        -0.6616
     23 C15        10.2959   -5.4272    3.6172 C.ar      1 <0>        -0.0237
     24 C16        10.4265   -6.7711    3.3209 C.ar      1 <0>        -0.1377
     25 C17        10.8824   -7.1633    2.0762 C.ar      1 <0>        -0.0592
     26 C18        11.2070   -6.2117    1.1276 C.ar      1 <0>        -0.1373
     27 C19        11.0723   -4.8679    1.4224 C.ar      1 <0>        -0.0232
     28 O4          0.8235   -2.6303    3.3508 O.2       1 <0>        -0.5087
     29 N4          3.2760   -2.7042   -0.0685 N.pl3     1 <0>        -0.8091
     30 H1          0.9049   -2.5505   -1.4656 H         1 <0>         0.0635
     31 H2          0.0800   -3.9823   -2.1272 H         1 <0>         0.0953
     32 H3         -0.6262   -3.1064   -0.7480 H         1 <0>         0.0897
     33 H4          2.0129   -4.6397   -0.7199 H         1 <0>         0.1151
     34 H5          0.0899   -6.1528   -0.7972 H         1 <0>         0.0858
     35 H6          0.7552   -6.1411    0.8537 H         1 <0>         0.0647
     36 H7         -1.6164   -5.8565    0.8480 H         1 <0>         0.4005
     37 H8          4.7857   -0.7820    0.6470 H         1 <0>         0.4335
     38 H9          5.7108   -2.0781    3.8864 H         1 <0>         0.1342
     39 H10         7.9957   -2.7443    4.5126 H         1 <0>         0.1573
     40 H11         9.3695   -1.7473    0.5994 H         1 <0>         0.1585
     41 H12         7.0862   -1.0886   -0.0405 H         1 <0>         0.1476
     42 H13         9.9397   -5.1207    4.5896 H         1 <0>         0.1428
     43 H14        10.1729   -7.5146    4.0621 H         1 <0>         0.1365
     44 H15        10.9851   -8.2133    1.8450 H         1 <0>         0.1347
     45 H16        11.5635   -6.5182    0.1553 H         1 <0>         0.1368
     46 H17        11.3224   -4.1245    0.6800 H         1 <0>         0.1433
     47 H18         3.0325   -3.1305   -0.9051 H         1 <0>         0.4280
     48 H19         4.1053   -2.2056   -0.0016 H         1 <0>         0.4236
     49 H20         0.7979   -3.6445    1.7420 H         1 <0>         0.4540
     50 H21         1.8211   -1.1689    5.2490 H         1 <0>         0.4690
@<TRIPOS>BOND
     1    1    2 1
     2    1   30 1
     3    1   31 1
     4    1   32 1
     5    2    3 1
     6    2    5 1
     7    2   33 1
     8    3    4 1
     9    3   34 1
    10    3   35 1
    11    4   36 1
    12    5    6 2
    13    5   49 1
    14    6    7 1
    15    6   29 1
    16    7   11 2
    17    7    8 1
    18    8    9 am
    19    8   28 2
    20    9   10 1
    21    9   50 1
    22   10   11 1
    23   11   12 1
    24   12   13 1
    25   12   37 1
    26   13   18 ar
    27   13   14 ar
    28   14   15 ar
    29   14   38 1
    30   15   16 ar
    31   15   39 1
    32   16   17 ar
    33   16   19 1
    34   17   18 ar
    35   17   40 1
    36   18   41 1
    37   19   20 2
    38   19   21 2
    39   19   22 1
    40   22   27 ar
    41   22   23 ar
    42   23   24 ar
    43   23   42 1
    44   24   25 ar
    45   24   43 1
    46   25   26 ar
    47   25   44 1
    48   26   27 ar
    49   26   45 1
    50   27   46 1
    51   29   47 1
    52   29   48 1
@<TRIPOS>MOLECULE
CHEMBL217117__1
   50    52     0     0     0
SMALL
USER_CHARGES

@<TRIPOS>ATOM
      1 C1         -4.2801    4.0251   -0.6641 C.3       1 <0>        -0.1731
      2 C2         -3.1079    3.1427   -0.2303 C.3       1 <0>         0.0994
      3 C3         -2.5827    3.6221    1.1245 C.3       1 <0>         0.0639
      4 O1         -3.6552    3.6494    2.0685 O.3       1 <0>        -0.5698
      5 N1         -3.5586    1.7535   -0.1155 N.pl3     1 <0>        -0.5974
      6 C4         -3.5831    0.9847   -1.1729 C.cat     1 <0>         0.6202
      7 C5         -4.0357   -0.4099   -1.0577 C.2       1 <0>        -0.3537
      8 C6         -4.3432   -1.0028    0.1661 C.2       1 <0>         0.5434
      9 N2         -4.7458   -2.2866    0.1247 N.am      1 <0>        -0.7224
     10 S1         -4.7157   -2.6920   -1.4967 S.3       1 <0>         0.5587
     11 C7         -4.1975   -1.2451   -2.1673 C.2       1 <0>         0.1668
     12 N3         -3.9809   -0.9507   -3.4927 N.pl3     1 <0>        -0.6359
     13 C8         -5.0221   -1.0801   -4.4167 C.ar      1 <0>         0.2015
     14 C9         -6.2542   -1.5774   -4.0117 C.ar      1 <0>        -0.1930
     15 C10        -7.2808   -1.7035   -4.9269 C.ar      1 <0>         0.0289
     16 C11        -7.0829   -1.3359   -6.2453 C.ar      1 <0>        -0.6740
     17 C12        -5.8575   -0.8405   -6.6517 C.ar      1 <0>         0.0259
     18 C13        -4.8285   -0.7064   -5.7404 C.ar      1 <0>        -0.1663
     19 S2         -8.3950   -1.4995   -7.4099 S.o2      1 <0>         2.5806
     20 O2         -7.7901   -1.5999   -8.6917 O.2       1 <0>        -0.9271
     21 O3         -9.2689   -2.4972   -6.8996 O.2       1 <0>        -0.9277
     22 C14        -9.2962    0.0145   -7.3955 C.ar      1 <0>        -0.6618
     23 C15       -10.3570    0.1792   -6.5245 C.ar      1 <0>        -0.0236
     24 C16       -11.0640    1.3670   -6.5132 C.ar      1 <0>        -0.1376
     25 C17       -10.7100    2.3903   -7.3726 C.ar      1 <0>        -0.0591
     26 C18        -9.6487    2.2259   -8.2430 C.ar      1 <0>        -0.1373
     27 C19        -8.9390    1.0397   -8.2512 C.ar      1 <0>        -0.0233
     28 O4         -4.2518   -0.3909    1.2181 O.2       1 <0>        -0.5097
     29 N4         -3.1844    1.4817   -2.3965 N.pl3     1 <0>        -0.8091
     30 H1         -3.9447    5.0587   -0.7494 H         1 <0>         0.0947
     31 H2         -4.6542    3.6836   -1.6292 H         1 <0>         0.0640
     32 H3         -5.0765    3.9616    0.0774 H         1 <0>         0.0885
     33 H4         -2.3114    3.2062   -0.9718 H         1 <0>         0.1139
     34 H5         -1.8073    2.9410    1.4752 H         1 <0>         0.0654
     35 H6         -2.1660    4.6237    1.0189 H         1 <0>         0.0857
     36 H7         -3.3944    3.9445    2.9516 H         1 <0>         0.4007
     37 H8         -3.1057   -0.6532   -3.7868 H         1 <0>         0.4334
     38 H9         -6.4092   -1.8654   -2.9824 H         1 <0>         0.1341
     39 H10        -8.2391   -2.0901   -4.6127 H         1 <0>         0.1573
     40 H11        -5.7063   -0.5542   -7.6821 H         1 <0>         0.1584
     41 H12        -3.8730   -0.3153   -6.0575 H         1 <0>         0.1475
     42 H13       -10.6335   -0.6202   -5.8531 H         1 <0>         0.1428
     43 H14       -11.8932    1.4954   -5.8333 H         1 <0>         0.1365
     44 H15       -11.2629    3.3180   -7.3643 H         1 <0>         0.1347
     45 H16        -9.3723    3.0252   -8.9146 H         1 <0>         0.1368
     46 H17        -8.1074    0.9126   -8.9286 H         1 <0>         0.1433
     47 H18        -2.8118    2.3751   -2.4591 H         1 <0>         0.4275
     48 H19        -3.2767    0.9377   -3.1944 H         1 <0>         0.4237
     49 H20        -3.8390    1.4041    0.7448 H         1 <0>         0.4541
     50 H21        -4.9977   -2.8521    0.8715 H         1 <0>         0.4690
@<TRIPOS>BOND
     1    1    2 1
     2    1   30 1
     3    1   31 1
     4    1   32 1
     5    2    3 1
     6    2    5 1
     7    2   33 1
     8    3    4 1
     9    3   34 1
    10    3   35 1
    11    4   36 1
    12    5    6 2
    13    5   49 1
    14    6    7 1
    15    6   29 1
    16    7   11 2
    17    7    8 1
    18    8    9 am
    19    8   28 2
    20    9   10 1
    21    9   50 1
    22   10   11 1
    23   11   12 1
    24   12   13 1
    25   12   37 1
    26   13   18 ar
    27   13   14 ar
    28   14   15 ar
    29   14   38 1
    30   15   16 ar
    31   15   39 1
    32   16   17 ar
    33   16   19 1
    34   17   18 ar
    35   17   40 1
    36   18   41 1
    37   19   20 2
    38   19   21 2
    39   19   22 1
    40   22   27 ar
    41   22   23 ar
    42   23   24 ar
    43   23   42 1
    44   24   25 ar
    45   24   43 1
    46   25   26 ar
    47   25   44 1
    48   26   27 ar
    49   26   45 1
    50   27   46 1
    51   29   47 1
    52   29   48 1
@<TRIPOS>MOLECULE
CHEMBL318326
   67    71     0     0     0
SMALL
USER_CHARGES

@<TRIPOS>ATOM
      1 C1         -2.0575    1.7985   -5.6652 C.3       1 <0>         0.0225
      2 O1         -2.0942    0.3701   -5.6477 O.3       1 <0>        -0.2974
      3 C2         -0.9754   -0.2710   -5.2158 C.ar      1 <0>         0.1293
      4 C3          0.1104    0.4559   -4.8200 C.ar      1 <0>        -0.1595
      5 C4          1.2657   -0.2024   -4.3740 C.ar      1 <0>        -0.0976
      6 C5          1.3025   -1.6173   -4.3356 C.ar      1 <0>         0.1673
      7 C6          0.1740   -2.3422   -4.7480 C.ar      1 <0>        -0.1774
      8 C7         -0.9496   -1.6718   -5.1756 C.ar      1 <0>         0.1599
      9 O2         -2.0431   -2.3756   -5.5687 O.3       1 <0>        -0.2921
     10 C8         -1.9550   -3.8005   -5.5047 C.3       1 <0>         0.0547
     11 C9         -3.2719   -4.4149   -5.9833 C.3       1 <0>        -0.1160
     12 C10        -3.1776   -5.9404   -5.9148 C.3       1 <0>         0.0586
     13 N1         -4.4421   -6.5303   -6.3743 N.3       1 <0>        -0.5363
     14 C11        -5.5389   -6.2124   -5.4485 C.3       1 <0>         0.0125
     15 C12        -6.8455   -6.7941   -5.9948 C.3       1 <0>         0.0624
     16 O3         -6.6906   -8.2027   -6.1873 O.3       1 <0>        -0.3853
     17 C13        -5.6313   -8.5482   -7.0839 C.3       1 <0>         0.0626
     18 C14        -4.3125   -7.9843   -6.5487 C.3       1 <0>         0.0174
     19 N2          2.4039   -2.2531   -3.9093 N.ar      1 <0>        -0.4604
     20 C15         3.4713   -1.6051   -3.5182 C.ar      1 <0>         0.1792
     21 C16         3.5232   -0.2019   -3.5225 C.ar      1 <0>        -0.0852
     22 C17         2.4047    0.5253   -3.9577 C.ar      1 <0>         0.2594
     23 N3          2.4153    1.9053   -3.9777 N.pl3     1 <0>        -0.6995
     24 C18         2.7918    2.5854   -5.1413 C.ar      1 <0>         0.2436
     25 C19         3.0010    1.8812   -6.3205 C.ar      1 <0>        -0.1841
     26 C20         3.3728    2.5514   -7.4685 C.ar      1 <0>        -0.0037
     27 C21         3.5375    3.9305   -7.4455 C.ar      1 <0>        -0.1625
     28 C22         3.3278    4.6357   -6.2659 C.ar      1 <0>         0.0659
     29 C23         2.9507    3.9651   -5.1186 C.ar      1 <0>        -0.1800
     30 Cl1         3.5335    6.3592   -6.2365 Cl        1 <0>        -0.0446
     31 S1          4.0127    4.7858   -8.9109 S.3       1 <0>         0.0459
     32 C24         2.5426    5.6157   -9.4157 C.ar      1 <0>         0.1088
     33 C25         2.5909    6.5261  -10.4675 C.ar      1 <0>        -0.1502
     34 C26         1.4296    7.1701  -10.8531 C.ar      1 <0>        -0.0585
     35 C27         0.2539    6.8816  -10.1720 C.ar      1 <0>        -0.1788
     36 C28         0.2782    5.9675   -9.1378 C.ar      1 <0>         0.1128
     37 N4          1.4000    5.3636   -8.7945 N.ar      1 <0>        -0.4774
     38 C29         4.7051    0.4799   -3.0878 C.1       1 <0>         0.2523
     39 N5          5.6427    1.0207   -2.7429 N.1       1 <0>        -0.3916
     40 H1         -1.8784    2.1697   -4.6561 H         1 <0>         0.0579
     41 H2         -1.2556    2.1333   -6.3232 H         1 <0>         0.0606
     42 H3         -3.0105    2.1820   -6.0296 H         1 <0>         0.1069
     43 H4          0.0799    1.5350   -4.8506 H         1 <0>         0.1483
     44 H5          0.1852   -3.4219   -4.7250 H         1 <0>         0.1566
     45 H6         -1.1409   -4.1432   -6.1434 H         1 <0>         0.0712
     46 H7         -1.7637   -4.1069   -4.4763 H         1 <0>         0.0686
     47 H8         -4.0860   -4.0721   -5.3447 H         1 <0>         0.0766
     48 H9         -3.4633   -4.1085   -7.0117 H         1 <0>         0.0866
     49 H10        -2.3635   -6.2832   -6.5535 H         1 <0>         0.0818
     50 H11        -2.9863   -6.2468   -4.8864 H         1 <0>         0.0405
     51 H12        -5.3278   -6.6466   -4.4713 H         1 <0>         0.0446
     52 H13        -5.6335   -5.1306   -5.3541 H         1 <0>         0.0904
     53 H14        -7.6511   -6.6103   -5.2839 H         1 <0>         0.0993
     54 H15        -7.0845   -6.3207   -6.9471 H         1 <0>         0.0611
     55 H16        -5.5588   -9.6331   -7.1607 H         1 <0>         0.0997
     56 H17        -5.8351   -8.1259   -8.0679 H         1 <0>         0.0611
     57 H18        -3.5118   -8.1960   -7.2573 H         1 <0>         0.0883
     58 H19        -4.0817   -8.4468   -5.5890 H         1 <0>         0.0448
     59 H20         4.3333   -2.1631   -3.1835 H         1 <0>         0.1746
     60 H21         2.1619    2.4038   -3.1851 H         1 <0>         0.4206
     61 H22         2.8731    0.8089   -6.3388 H         1 <0>         0.1317
     62 H23         3.5360    2.0034   -8.3847 H         1 <0>         0.1423
     63 H24         2.7837    4.5130   -4.2030 H         1 <0>         0.1395
     64 H25         3.5227    6.7270  -10.9751 H         1 <0>         0.1387
     65 H26         1.4367    7.8817  -11.6655 H         1 <0>         0.1393
     66 H27        -0.6700    7.3678  -10.4485 H         1 <0>         0.1362
     67 H28        -0.6337    5.7406   -8.6055 H         1 <0>         0.1554
@<TRIPOS>BOND
     1    1    2 1
     2    1   40 1
     3    1   41 1
     4    1   42 1
     5    2    3 1
     6    3    8 ar
     7    3    4 ar
     8    4    5 ar
     9    4   43 1
    10    5   22 ar
    11    5    6 ar
    12    6    7 ar
    13    6   19 ar
    14    7    8 ar
    15    7   44 1
    16    8    9 1
    17    9   10 1
    18   10   11 1
    19   10   45 1
    20   10   46 1
    21   11   12 1
    22   11   47 1
    23   11   48 1
    24   12   13 1
    25   12   49 1
    26   12   50 1
    27   13   18 1
    28   13   14 1
    29   14   15 1
    30   14   51 1
    31   14   52 1
    32   15   16 1
    33   15   53 1
    34   15   54 1
    35   16   17 1
    36   17   18 1
    37   17   55 1
    38   17   56 1
    39   18   57 1
    40   18   58 1
    41   19   20 ar
    42   20   21 ar
    43   20   59 1
    44   21   22 ar
    45   21   38 1
    46   22   23 1
    47   23   24 1
    48   23   60 1
    49   24   29 ar
    50   24   25 ar
    51   25   26 ar
    52   25   61 1
    53   26   27 ar
    54   26   62 1
    55   27   28 ar
    56   27   31 1
    57   28   29 ar
    58   28   30 1
    59   29   63 1
    60   31   32 1
    61   32   37 ar
    62   32   33 ar
    63   33   34 ar
    64   33   64 1
    65   34   35 ar
    66   34   65 1
    67   35   36 ar
    68   35   66 1
    69   36   37 ar
    70   36   67 1
    71   38   39 3
@<TRIPOS>MOLECULE
CHEMBL318326__1
   68    72     0     0     0
SMALL
USER_CHARGES

@<TRIPOS>ATOM
      1 C1         -2.0575    1.7985   -5.6652 C.3       1 <0>         0.0214
      2 O1         -2.0942    0.3701   -5.6477 O.3       1 <0>        -0.3017
      3 C2         -0.9754   -0.2710   -5.2158 C.ar      1 <0>         0.1258
      4 C3          0.1104    0.4559   -4.8200 C.ar      1 <0>        -0.1506
      5 C4          1.2657   -0.2024   -4.3740 C.ar      1 <0>        -0.0944
      6 C5          1.3025   -1.6173   -4.3356 C.ar      1 <0>         0.1618
      7 C6          0.1740   -2.3422   -4.7480 C.ar      1 <0>        -0.1695
      8 C7         -0.9496   -1.6718   -5.1756 C.ar      1 <0>         0.1496
      9 O2         -2.0431   -2.3756   -5.5687 O.3       1 <0>        -0.2938
     10 C8         -1.9550   -3.8005   -5.5047 C.3       1 <0>         0.0564
     11 C9         -3.2719   -4.4149   -5.9833 C.3       1 <0>        -0.1506
     12 C10        -3.1776   -5.9404   -5.9148 C.3       1 <0>        -0.0060
     13 N1         -4.4421   -6.5303   -6.3743 N.4       1 <0>        -0.3844
     14 C11        -5.5194   -6.1663   -5.4437 C.3       1 <0>        -0.0502
     15 C12        -6.8357   -6.7819   -5.9247 C.3       1 <0>         0.0362
     16 O3         -6.6843   -8.2007   -6.0239 O.3       1 <0>        -0.3562
     17 C13        -5.6300   -8.6053   -6.9017 C.3       1 <0>         0.0355
     18 C14        -4.3114   -7.9931   -6.4225 C.3       1 <0>        -0.0433
     19 N2          2.4039   -2.2531   -3.9093 N.ar      1 <0>        -0.4632
     20 C15         3.4713   -1.6051   -3.5182 C.ar      1 <0>         0.1844
     21 C16         3.5232   -0.2019   -3.5225 C.ar      1 <0>        -0.0752
     22 C17         2.4047    0.5253   -3.9577 C.ar      1 <0>         0.2626
     23 N3          2.4153    1.9053   -3.9777 N.pl3     1 <0>        -0.7021
     24 C18         2.7918    2.5854   -5.1413 C.ar      1 <0>         0.2397
     25 C19         3.0010    1.8812   -6.3205 C.ar      1 <0>        -0.1857
     26 C20         3.3728    2.5514   -7.4685 C.ar      1 <0>        -0.0044
     27 C21         3.5375    3.9305   -7.4455 C.ar      1 <0>        -0.1596
     28 C22         3.3278    4.6357   -6.2659 C.ar      1 <0>         0.0654
     29 C23         2.9507    3.9651   -5.1186 C.ar      1 <0>        -0.1777
     30 Cl1         3.5335    6.3592   -6.2365 Cl        1 <0>        -0.0399
     31 S1          4.0127    4.7858   -8.9109 S.3       1 <0>         0.0482
     32 C24         2.5426    5.6157   -9.4157 C.ar      1 <0>         0.1076
     33 C25         2.5909    6.5261  -10.4675 C.ar      1 <0>        -0.1484
     34 C26         1.4296    7.1701  -10.8531 C.ar      1 <0>        -0.0574
     35 C27         0.2539    6.8816  -10.1720 C.ar      1 <0>        -0.1775
     36 C28         0.2782    5.9675   -9.1378 C.ar      1 <0>         0.1111
     37 N4          1.4000    5.3636   -8.7945 N.ar      1 <0>        -0.4792
     38 C29         4.7051    0.4799   -3.0878 C.1       1 <0>         0.2444
     39 N5          5.6427    1.0207   -2.7429 N.1       1 <0>        -0.3789
     40 H1         -1.8784    2.1697   -4.6561 H         1 <0>         0.0603
     41 H2         -1.2556    2.1333   -6.3232 H         1 <0>         0.0629
     42 H3         -3.0105    2.1820   -6.0296 H         1 <0>         0.1087
     43 H4          0.0799    1.5350   -4.8506 H         1 <0>         0.1512
     44 H5          0.1852   -3.4219   -4.7250 H         1 <0>         0.1539
     45 H6         -1.1409   -4.1432   -6.1434 H         1 <0>         0.0793
     46 H7         -1.7637   -4.1069   -4.4763 H         1 <0>         0.0789
     47 H8         -4.0860   -4.0721   -5.3447 H         1 <0>         0.1005
     48 H9         -3.4633   -4.1085   -7.0117 H         1 <0>         0.1014
     49 H10        -2.3635   -6.2832   -6.5535 H         1 <0>         0.1385
     50 H11        -2.9863   -6.2468   -4.8864 H         1 <0>         0.1362
     51 H12        -5.2835   -6.5440   -4.4488 H         1 <0>         0.1408
     52 H13        -5.6172   -5.0813   -5.4073 H         1 <0>         0.1447
     53 H14        -7.6278   -6.5492   -5.2131 H         1 <0>         0.1426
     54 H15        -7.0924   -6.3740   -6.9024 H         1 <0>         0.0819
     55 H16        -5.5495   -9.6923   -6.8972 H         1 <0>         0.1430
     56 H17        -5.8454   -8.2598   -7.9128 H         1 <0>         0.0819
     57 H18        -3.5125   -8.2642   -7.1127 H         1 <0>         0.1442
     58 H19        -4.0760   -8.3701   -5.4272 H         1 <0>         0.1403
     59 H20         4.3333   -2.1631   -3.1835 H         1 <0>         0.1777
     60 H21         2.1619    2.4038   -3.1851 H         1 <0>         0.4219
     61 H22         2.8731    0.8089   -6.3388 H         1 <0>         0.1295
     62 H23         3.5360    2.0034   -8.3847 H         1 <0>         0.1424
     63 H24         2.7837    4.5130   -4.2030 H         1 <0>         0.1405
     64 H25         3.5227    6.7270  -10.9751 H         1 <0>         0.1397
     65 H26         1.4367    7.8817  -11.6655 H         1 <0>         0.1407
     66 H27        -0.6700    7.3678  -10.4485 H         1 <0>         0.1367
     67 H28        -0.6337    5.7406   -8.6055 H         1 <0>         0.1547
     68 H29        -4.6609   -6.1816   -7.2955 H         1 <0>         0.4247
@<TRIPOS>BOND
     1    1    2 1
     2    1   40 1
     3    1   41 1
     4    1   42 1
     5    2    3 1
     6    3    8 ar
     7    3    4 ar
     8    4    5 ar
     9    4   43 1
    10    5   22 ar
    11    5    6 ar
    12    6    7 ar
    13    6   19 ar
    14    7    8 ar
    15    7   44 1
    16    8    9 1
    17    9   10 1
    18   10   11 1
    19   10   45 1
    20   10   46 1
    21   11   12 1
    22   11   47 1
    23   11   48 1
    24   12   13 1
    25   12   49 1
    26   12   50 1
    27   13   18 1
    28   13   14 1
    29   13   68 1
    30   14   15 1
    31   14   51 1
    32   14   52 1
    33   15   16 1
    34   15   53 1
    35   15   54 1
    36   16   17 1
    37   17   18 1
    38   17   55 1
    39   17   56 1
    40   18   57 1
    41   18   58 1
    42   19   20 ar
    43   20   21 ar
    44   20   59 1
    45   21   22 ar
    46   21   38 1
    47   22   23 1
    48   23   24 1
    49   23   60 1
    50   24   29 ar
    51   24   25 ar
    52   25   26 ar
    53   25   61 1
    54   26   27 ar
    55   26   62 1
    56   27   28 ar
    57   27   31 1
    58   28   29 ar
    59   28   30 1
    60   29   63 1
    61   31   32 1
    62   32   37 ar
    63   32   33 ar
    64   33   34 ar
    65   33   64 1
    66   34   35 ar
    67   34   65 1
    68   35   36 ar
    69   35   66 1
    70   36   37 ar
    71   36   67 1
    72   38   39 3
@<TRIPOS>MOLECULE
CHEMBL217310
   50    52     0     0     0
SMALL
USER_CHARGES

@<TRIPOS>ATOM
      1 C1          0.9604   -3.4278    0.8049 C.3       1 <0>        -0.1740
      2 C2         -0.2518   -4.3454    0.9773 C.3       1 <0>         0.0984
      3 C3         -0.1132   -5.5534    0.0487 C.3       1 <0>         0.0643
      4 O1          0.0739   -5.1027   -1.2944 O.3       1 <0>        -0.5691
      5 N1         -1.4731   -3.6092    0.6419 N.pl3     1 <0>        -0.5998
      6 C4         -2.0609   -2.8709    1.5470 C.cat     1 <0>         0.6212
      7 C5         -3.2870   -2.1319    1.2103 C.2       1 <0>        -0.3623
      8 C6         -3.8072   -2.0861   -0.0823 C.2       1 <0>         0.5441
      9 N2         -4.9365   -1.3724   -0.2480 N.am      1 <0>        -0.7243
     10 S1         -5.2947   -0.7797    1.2734 S.3       1 <0>         0.5425
     11 C7         -4.0272   -1.4240    2.1622 C.2       1 <0>         0.1797
     12 N3         -3.7744   -1.2869    3.5067 N.pl3     1 <0>        -0.6331
     13 C8         -4.7275   -1.6991    4.4427 C.ar      1 <0>         0.1352
     14 C9         -5.9592   -2.1794    4.0166 C.ar      1 <0>        -0.1651
     15 C10        -6.8983   -2.5863    4.9438 C.ar      1 <0>        -0.0676
     16 C11        -6.6137   -2.5156    6.2953 C.ar      1 <0>        -0.0780
     17 C12        -5.3884   -2.0379    6.7229 C.ar      1 <0>        -0.0704
     18 C13        -4.4427   -1.6348    5.8007 C.ar      1 <0>        -0.1398
     19 C14        -7.6412   -2.9596    7.3042 C.3       1 <0>        -0.0465
     20 C15        -7.4556   -4.4259    7.5983 C.ar      1 <0>        -0.0835
     21 C16        -8.1203   -5.3723    6.8411 C.ar      1 <0>        -0.1152
     22 C17        -7.9500   -6.7173    7.1108 C.ar      1 <0>        -0.1171
     23 C18        -7.1147   -7.1160    8.1376 C.ar      1 <0>        -0.1198
     24 C19        -6.4493   -6.1696    8.8943 C.ar      1 <0>        -0.1168
     25 C20        -6.6163   -4.8247    8.6217 C.ar      1 <0>        -0.1148
     26 O2         -3.2677   -2.6618   -1.0135 O.2       1 <0>        -0.5124
     27 N4         -1.5308   -2.7853    2.8179 N.pl3     1 <0>        -0.8092
     28 H1          1.8691   -3.9756    1.0545 H         1 <0>         0.0944
     29 H2          1.0139   -3.0870   -0.2290 H         1 <0>         0.0892
     30 H3          0.8616   -2.5672    1.4665 H         1 <0>         0.0633
     31 H4         -0.3053   -4.6862    2.0113 H         1 <0>         0.1146
     32 H5          0.7461   -6.1502    0.3547 H         1 <0>         0.0852
     33 H6         -1.0163   -6.1610    0.1056 H         1 <0>         0.0646
     34 H7          0.1694   -5.8170   -1.9393 H         1 <0>         0.3999
     35 H8         -2.9349   -0.9040    3.8058 H         1 <0>         0.4297
     36 H9         -6.1824   -2.2343    2.9613 H         1 <0>         0.1234
     37 H10        -7.8562   -2.9599    4.6132 H         1 <0>         0.1363
     38 H11        -5.1692   -1.9840    7.7790 H         1 <0>         0.1374
     39 H12        -3.4843   -1.2660    6.1352 H         1 <0>         0.1347
     40 H13        -7.5193   -2.3864    8.2233 H         1 <0>         0.0887
     41 H14        -8.6407   -2.7933    6.9022 H         1 <0>         0.0884
     42 H15        -8.7729   -5.0608    6.0389 H         1 <0>         0.1207
     43 H16        -8.4699   -7.4567    6.5196 H         1 <0>         0.1232
     44 H17        -6.9822   -8.1668    8.3488 H         1 <0>         0.1230
     45 H18        -5.7970   -6.4811    9.6967 H         1 <0>         0.1235
     46 H19        -6.0935   -4.0855    9.2105 H         1 <0>         0.1212
     47 H20        -0.6780   -3.2024    3.0168 H         1 <0>         0.4268
     48 H21        -2.0110   -2.3079    3.5125 H         1 <0>         0.4243
     49 H22        -1.8458   -3.6694   -0.2516 H         1 <0>         0.4535
     50 H23        -5.4329   -1.2326   -1.0696 H         1 <0>         0.4673
@<TRIPOS>BOND
     1    1    2 1
     2    1   28 1
     3    1   29 1
     4    1   30 1
     5    2    3 1
     6    2    5 1
     7    2   31 1
     8    3    4 1
     9    3   32 1
    10    3   33 1
    11    4   34 1
    12    5    6 2
    13    5   49 1
    14    6    7 1
    15    6   27 1
    16    7   11 2
    17    7    8 1
    18    8    9 am
    19    8   26 2
    20    9   10 1
    21    9   50 1
    22   10   11 1
    23   11   12 1
    24   12   13 1
    25   12   35 1
    26   13   18 ar
    27   13   14 ar
    28   14   15 ar
    29   14   36 1
    30   15   16 ar
    31   15   37 1
    32   16   17 ar
    33   16   19 1
    34   17   18 ar
    35   17   38 1
    36   18   39 1
    37   19   20 1
    38   19   40 1
    39   19   41 1
    40   20   25 ar
    41   20   21 ar
    42   21   22 ar
    43   21   42 1
    44   22   23 ar
    45   22   43 1
    46   23   24 ar
    47   23   44 1
    48   24   25 ar
    49   24   45 1
    50   25   46 1
    51   27   47 1
    52   27   48 1
@<TRIPOS>MOLECULE
CHEMBL217310__1
   50    52     0     0     0
SMALL
USER_CHARGES

@<TRIPOS>ATOM
      1 C1          2.6561    4.1336   -3.2920 C.3       1 <0>        -0.1732
      2 C2          1.7083    3.2206   -2.5116 C.3       1 <0>         0.1001
      3 C3          0.2652    3.6818   -2.7247 C.3       1 <0>         0.0642
      4 O1         -0.0168    3.7328   -4.1246 O.3       1 <0>        -0.5695
      5 N1          1.8559    1.8428   -2.9870 N.pl3     1 <0>        -0.6001
      6 C4          2.7958    1.0785   -2.4950 C.cat     1 <0>         0.6214
      7 C5          2.9439   -0.3047   -2.9723 C.2       1 <0>        -0.3621
      8 C6          2.0470   -0.8939   -3.8622 C.2       1 <0>         0.5445
      9 N2          2.3040   -2.1671   -4.2158 N.am      1 <0>        -0.7242
     10 S1          3.6995   -2.5675   -3.3871 S.3       1 <0>         0.5424
     11 C7          3.9987   -1.1317   -2.5743 C.2       1 <0>         0.1798
     12 N3          5.0338   -0.8382   -1.7183 N.pl3     1 <0>        -0.6329
     13 C8          6.3563   -0.9382   -2.1604 C.ar      1 <0>         0.1351
     14 C9          6.6291   -1.4058   -3.4396 C.ar      1 <0>        -0.1648
     15 C10         7.9367   -1.5029   -3.8734 C.ar      1 <0>        -0.0676
     16 C11         8.9738   -1.1357   -3.0356 C.ar      1 <0>        -0.0778
     17 C12         8.7057   -0.6698   -1.7615 C.ar      1 <0>        -0.0705
     18 C13         7.4002   -0.5648   -1.3235 C.ar      1 <0>        -0.1397
     19 C14        10.3994   -1.2440   -3.5120 C.3       1 <0>        -0.0464
     20 C15        10.8083    0.0481   -4.1710 C.ar      1 <0>        -0.0836
     21 C16        10.6066    0.2266   -5.5268 C.ar      1 <0>        -0.1151
     22 C17        10.9817    1.4119   -6.1313 C.ar      1 <0>        -0.1169
     23 C18        11.5581    2.4188   -5.3798 C.ar      1 <0>        -0.1197
     24 C19        11.7590    2.2406   -4.0238 C.ar      1 <0>        -0.1168
     25 C20        11.3800    1.0570   -3.4185 C.ar      1 <0>        -0.1148
     26 O2          1.0807   -0.2882   -4.2968 O.2       1 <0>        -0.5134
     27 N4          3.6486    1.5696   -1.5280 N.pl3     1 <0>        -0.8092
     28 H1          3.6842    3.8050   -3.1402 H         1 <0>         0.0643
     29 H2          2.4129    4.0876   -4.3535 H         1 <0>         0.0881
     30 H3          2.5463    5.1588   -2.9383 H         1 <0>         0.0939
     31 H4          1.9515    3.2667   -1.4501 H         1 <0>         0.1132
     32 H5         -0.4155    2.9804   -2.2422 H         1 <0>         0.0650
     33 H6          0.1328    4.6731   -2.2911 H         1 <0>         0.0850
     34 H7         -0.9166    4.0181   -4.3345 H         1 <0>         0.4001
     35 H8          4.8465   -0.5617   -0.8076 H         1 <0>         0.4295
     36 H9          5.8196   -1.6934   -4.0941 H         1 <0>         0.1233
     37 H10         8.1494   -1.8664   -4.8679 H         1 <0>         0.1363
     38 H11         9.5180   -0.3839   -1.1097 H         1 <0>         0.1374
     39 H12         7.1913   -0.1967   -0.3299 H         1 <0>         0.1345
     40 H13        11.0526   -1.4410   -2.6620 H         1 <0>         0.0887
     41 H14        10.4815   -2.0600   -4.2301 H         1 <0>         0.0884
     42 H15        10.1563   -0.5601   -6.1140 H         1 <0>         0.1207
     43 H16        10.8248    1.5510   -7.1907 H         1 <0>         0.1232
     44 H17        11.8519    3.3445   -5.8522 H         1 <0>         0.1231
     45 H18        12.2097    3.0272   -3.4367 H         1 <0>         0.1235
     46 H19        11.5335    0.9193   -2.3584 H         1 <0>         0.1211
     47 H20         3.5026    2.4536   -1.1563 H         1 <0>         0.4262
     48 H21         4.3941    1.0309   -1.2199 H         1 <0>         0.4243
     49 H22         1.2563    1.4975   -3.6669 H         1 <0>         0.4536
     50 H23         1.7920   -2.7287   -4.8185 H         1 <0>         0.4673
@<TRIPOS>BOND
     1    1    2 1
     2    1   28 1
     3    1   29 1
     4    1   30 1
     5    2    3 1
     6    2    5 1
     7    2   31 1
     8    3    4 1
     9    3   32 1
    10    3   33 1
    11    4   34 1
    12    5    6 2
    13    5   49 1
    14    6    7 1
    15    6   27 1
    16    7   11 2
    17    7    8 1
    18    8    9 am
    19    8   26 2
    20    9   10 1
    21    9   50 1
    22   10   11 1
    23   11   12 1
    24   12   13 1
    25   12   35 1
    26   13   18 ar
    27   13   14 ar
    28   14   15 ar
    29   14   36 1
    30   15   16 ar
    31   15   37 1
    32   16   17 ar
    33   16   19 1
    34   17   18 ar
    35   17   38 1
    36   18   39 1
    37   19   20 1
    38   19   40 1
    39   19   41 1
    40   20   25 ar
    41   20   21 ar
    42   21   22 ar
    43   21   42 1
    44   22   23 ar
    45   22   43 1
    46   23   24 ar
    47   23   44 1
    48   24   25 ar
    49   24   45 1
    50   25   46 1
    51   27   47 1
    52   27   48 1
@<TRIPOS>MOLECULE
CHEMBL217130
   49    51     0     0     0
SMALL
USER_CHARGES

@<TRIPOS>ATOM
      1 C1          0.2599   -1.4674   -0.4056 C.3       1 <0>        -0.1741
      2 C2          1.0265   -2.6435    0.2029 C.3       1 <0>         0.0978
      3 C3          0.1152   -3.8711    0.2605 C.3       1 <0>         0.0641
      4 O1         -1.0815   -3.5432    0.9693 O.3       1 <0>        -0.5693
      5 N1          1.4616   -2.2943    1.5575 N.pl3     1 <0>        -0.5977
      6 C4          2.5775   -1.6368    1.7366 C.cat     1 <0>         0.6202
      7 C5          3.0144   -1.2863    3.0966 C.2       1 <0>        -0.3545
      8 C6          2.2330   -1.5318    4.2249 C.2       1 <0>         0.5428
      9 N2          2.7568   -1.1600    5.4079 N.am      1 <0>        -0.7224
     10 S1          4.2461   -0.5028    5.0282 S.3       1 <0>         0.5527
     11 C7          4.2486   -0.6858    3.3614 C.2       1 <0>         0.1709
     12 N3          5.2307   -0.3279    2.4671 N.pl3     1 <0>        -0.6342
     13 C8          6.5058   -0.8745    2.5781 C.ar      1 <0>         0.1731
     14 C9          6.7968   -1.7528    3.6187 C.ar      1 <0>        -0.1810
     15 C10         8.0517   -2.2935    3.7310 C.ar      1 <0>        -0.0148
     16 C11         9.0404   -1.9618    2.7984 C.ar      1 <0>        -0.1673
     17 C12         8.7445   -1.0790    1.7542 C.ar      1 <0>        -0.0356
     18 C13         7.4859   -0.5463    1.6451 C.ar      1 <0>        -0.1568
     19 C14        10.3912   -2.5408    2.9161 C.2       1 <0>         0.4372
     20 O2         10.5570   -3.5773    3.5300 O.2       1 <0>        -0.4378
     21 C15        11.5436   -1.8615    2.2880 C.ar      1 <0>        -0.1667
     22 C16        11.4834   -0.4954    2.0045 C.ar      1 <0>        -0.0859
     23 C17        12.5626    0.1323    1.4182 C.ar      1 <0>        -0.1294
     24 C18        13.7032   -0.5886    1.1108 C.ar      1 <0>        -0.0843
     25 C19        13.7695   -1.9427    1.3885 C.ar      1 <0>        -0.1258
     26 C20        12.7000   -2.5817    1.9804 C.ar      1 <0>        -0.0603
     27 O3          1.1334   -2.0552    4.1443 O.2       1 <0>        -0.5098
     28 N4          3.3451   -1.2719    0.6499 N.pl3     1 <0>        -0.8088
     29 H1          0.9092   -0.5928   -0.4466 H         1 <0>         0.0634
     30 H2         -0.0638   -1.7272   -1.4134 H         1 <0>         0.0950
     31 H3         -0.6116   -1.2444    0.2099 H         1 <0>         0.0894
     32 H4          1.8980   -2.8665   -0.4126 H         1 <0>         0.1154
     33 H5         -0.1368   -4.1844   -0.7526 H         1 <0>         0.0856
     34 H6          0.6308   -4.6826    0.7741 H         1 <0>         0.0649
     35 H7         -1.7074   -4.2764    1.0447 H         1 <0>         0.4003
     36 H8          5.0345    0.3054    1.7590 H         1 <0>         0.4325
     37 H9          6.0331   -2.0081    4.3385 H         1 <0>         0.1299
     38 H10         8.2768   -2.9743    4.5386 H         1 <0>         0.1476
     39 H11         9.5054   -0.8208    1.0325 H         1 <0>         0.1522
     40 H12         7.2555    0.1318    0.8367 H         1 <0>         0.1433
     41 H13        10.5937    0.0683    2.2436 H         1 <0>         0.1331
     42 H14        12.5173    1.1886    1.1981 H         1 <0>         0.1320
     43 H15        14.5454   -0.0922    0.6518 H         1 <0>         0.1314
     44 H16        14.6624   -2.4994    1.1454 H         1 <0>         0.1335
     45 H17        12.7548   -3.6375    2.2010 H         1 <0>         0.1343
     46 H18         3.0113   -1.4147   -0.2496 H         1 <0>         0.4276
     47 H19         4.2186   -0.8724    0.7853 H         1 <0>         0.4243
     48 H20         0.9219   -2.5509    2.3215 H         1 <0>         0.4538
     49 H21         2.3576   -1.2527    6.2871 H         1 <0>         0.4684
@<TRIPOS>BOND
     1    1    2 1
     2    1   29 1
     3    1   30 1
     4    1   31 1
     5    2    3 1
     6    2    5 1
     7    2   32 1
     8    3    4 1
     9    3   33 1
    10    3   34 1
    11    4   35 1
    12    5    6 2
    13    5   48 1
    14    6    7 1
    15    6   28 1
    16    7   11 2
    17    7    8 1
    18    8    9 am
    19    8   27 2
    20    9   10 1
    21    9   49 1
    22   10   11 1
    23   11   12 1
    24   12   13 1
    25   12   36 1
    26   13   18 ar
    27   13   14 ar
    28   14   15 ar
    29   14   37 1
    30   15   16 ar
    31   15   38 1
    32   16   17 ar
    33   16   19 1
    34   17   18 ar
    35   17   39 1
    36   18   40 1
    37   19   20 2
    38   19   21 1
    39   21   26 ar
    40   21   22 ar
    41   22   23 ar
    42   22   41 1
    43   23   24 ar
    44   23   42 1
    45   24   25 ar
    46   24   43 1
    47   25   26 ar
    48   25   44 1
    49   26   45 1
    50   28   46 1
    51   28   47 1
@<TRIPOS>MOLECULE
CHEMBL217130__1
   49    51     0     0     0
SMALL
USER_CHARGES

@<TRIPOS>ATOM
      1 C1         -3.0879    2.8997   -0.8619 C.3       1 <0>        -0.1734
      2 C2         -2.2569    1.7390   -0.3114 C.3       1 <0>         0.0997
      3 C3         -1.6655    2.1328    1.0436 C.3       1 <0>         0.0640
      4 O1         -2.7158    2.5472    1.9194 O.3       1 <0>        -0.5695
      5 N1         -3.1121    0.5609   -0.1472 N.pl3     1 <0>        -0.5981
      6 C4         -3.3265   -0.2376   -1.1601 C.cat     1 <0>         0.6205
      7 C5         -4.1851   -1.4204   -0.9951 C.2       1 <0>        -0.3546
      8 C6         -4.7105   -1.8030    0.2383 C.2       1 <0>         0.5432
      9 N2         -5.4812   -2.9066    0.2441 N.am      1 <0>        -0.7224
     10 S1         -5.5051   -3.4195   -1.3467 S.3       1 <0>         0.5528
     11 C7         -4.5442   -2.2471   -2.0636 C.2       1 <0>         0.1709
     12 N3         -4.1912   -2.1285   -3.3879 N.pl3     1 <0>        -0.6338
     13 C8         -5.1764   -1.9865   -4.3607 C.ar      1 <0>         0.1729
     14 C9         -6.5202   -2.0061   -3.9963 C.ar      1 <0>        -0.1807
     15 C10        -7.4934   -1.8660   -4.9519 C.ar      1 <0>        -0.0147
     16 C11        -7.1349   -1.7033   -6.2944 C.ar      1 <0>        -0.1671
     17 C12        -5.7838   -1.6841   -6.6568 C.ar      1 <0>        -0.0357
     18 C13        -4.8158   -1.8194   -5.6952 C.ar      1 <0>        -0.1566
     19 C14        -8.1785   -1.5529   -7.3248 C.2       1 <0>         0.4371
     20 O2         -9.2885   -1.1656   -7.0140 O.2       1 <0>        -0.4375
     21 C15        -7.8757   -1.8729   -8.7355 C.ar      1 <0>        -0.1666
     22 C16        -6.8231   -2.7357   -9.0487 C.ar      1 <0>        -0.0860
     23 C17        -6.5459   -3.0299  -10.3674 C.ar      1 <0>        -0.1295
     24 C18        -7.3081   -2.4724  -11.3790 C.ar      1 <0>        -0.0843
     25 C19        -8.3522   -1.6163  -11.0758 C.ar      1 <0>        -0.1258
     26 C20        -8.6444   -1.3183   -9.7612 C.ar      1 <0>        -0.0603
     27 O3         -4.4836   -1.1716    1.2579 O.2       1 <0>        -0.5108
     28 N4         -2.7475    0.0293   -2.3835 N.pl3     1 <0>        -0.8087
     29 H1         -2.4517    3.7763   -0.9841 H         1 <0>         0.0944
     30 H2         -3.5093    2.6192   -1.8272 H         1 <0>         0.0646
     31 H3         -3.8949    3.1306   -0.1665 H         1 <0>         0.0884
     32 H4         -1.4499    1.5081   -1.0068 H         1 <0>         0.1137
     33 H5         -1.1477    1.2769    1.4766 H         1 <0>         0.0651
     34 H6         -0.9607    2.9531    0.9078 H         1 <0>         0.0854
     35 H7         -2.4131    2.8119    2.7989 H         1 <0>         0.4004
     36 H8         -3.2556   -2.1437   -3.6437 H         1 <0>         0.4322
     37 H9         -6.7962   -2.1321   -2.9598 H         1 <0>         0.1298
     38 H10        -8.5354   -1.8817   -4.6686 H         1 <0>         0.1477
     39 H11        -5.5035   -1.5587   -7.6922 H         1 <0>         0.1521
     40 H12        -3.7725   -1.8002   -5.9737 H         1 <0>         0.1432
     41 H13        -6.2273   -3.1712   -8.2601 H         1 <0>         0.1331
     42 H14        -5.7320   -3.6967  -10.6111 H         1 <0>         0.1319
     43 H15        -7.0867   -2.7062  -12.4099 H         1 <0>         0.1314
     44 H16        -8.9426   -1.1842  -11.8702 H         1 <0>         0.1335
     45 H17        -9.4626   -0.6539   -9.5257 H         1 <0>         0.1343
     46 H18        -2.1127    0.7575   -2.4711 H         1 <0>         0.4270
     47 H19        -2.9751   -0.5113   -3.1561 H         1 <0>         0.4243
     48 H20        -3.5192    0.3733    0.7130 H         1 <0>         0.4539
     49 H21        -5.9247   -3.3147    1.0041 H         1 <0>         0.4684
@<TRIPOS>BOND
     1    1    2 1
     2    1   29 1
     3    1   30 1
     4    1   31 1
     5    2    3 1
     6    2    5 1
     7    2   32 1
     8    3    4 1
     9    3   33 1
    10    3   34 1
    11    4   35 1
    12    5    6 2
    13    5   48 1
    14    6    7 1
    15    6   28 1
    16    7   11 2
    17    7    8 1
    18    8    9 am
    19    8   27 2
    20    9   10 1
    21    9   49 1
    22   10   11 1
    23   11   12 1
    24   12   13 1
    25   12   36 1
    26   13   18 ar
    27   13   14 ar
    28   14   15 ar
    29   14   37 1
    30   15   16 ar
    31   15   38 1
    32   16   17 ar
    33   16   19 1
    34   17   18 ar
    35   17   39 1
    36   18   40 1
    37   19   20 2
    38   19   21 1
    39   21   26 ar
    40   21   22 ar
    41   22   23 ar
    42   22   41 1
    43   23   24 ar
    44   23   42 1
    45   24   25 ar
    46   24   43 1
    47   25   26 ar
    48   25   44 1
    49   26   45 1
    50   28   46 1
    51   28   47 1
@<TRIPOS>MOLECULE
CHEMBL1170805
   46    47     0     0     0
SMALL
USER_CHARGES

@<TRIPOS>ATOM
      1 C1         -1.1407    1.8202   -0.7704 C.3       1 <0>        -0.1899
      2 C2         -0.3561    0.5458   -0.5932 C.2       1 <0>         0.4165
      3 O1          0.2980    0.3704    0.4156 O.2       1 <0>        -0.4714
      4 C3         -0.3811   -0.4424   -1.5975 C.2       1 <0>        -0.0795
      5 C4         -1.0742   -0.3682   -2.7884 C.2       1 <0>        -0.0698
      6 C5         -0.8230   -1.5629   -3.4895 C.2       1 <0>        -0.2183
      7 C6          0.0265   -2.3390   -2.6945 C.2       1 <0>         0.3585
      8 N1          0.2916   -1.6553   -1.5620 N.pl3     1 <0>        -0.4024
      9 C7          1.1494   -2.1203   -0.4692 C.3       1 <0>         0.0577
     10 N2          0.5126   -3.5822   -3.0146 N.pl3     1 <0>        -0.6515
     11 C8          0.0971   -4.7041   -2.2889 C.ar      1 <0>         0.1918
     12 C9         -0.7109   -4.5492   -1.1705 C.ar      1 <0>        -0.1593
     13 C10        -1.1200   -5.6584   -0.4562 C.ar      1 <0>        -0.0460
     14 C11        -0.7257   -6.9236   -0.8530 C.ar      1 <0>        -0.1196
     15 C12         0.0793   -7.0831   -1.9666 C.ar      1 <0>        -0.0744
     16 C13         0.4878   -5.9774   -2.6897 C.ar      1 <0>         0.0545
     17 F1          1.2698   -6.1332   -3.7803 F         1 <0>        -0.1286
     18 I1         -1.3484   -8.6019    0.2354 I         1 <0>        -0.0259
     19 C14        -1.3543   -1.9267   -4.8096 C.2       1 <0>         0.6021
     20 O2         -1.0603   -2.9960   -5.3102 O.2       1 <0>        -0.5120
     21 N3         -2.1676   -1.0761   -5.4665 N.am      1 <0>        -0.5977
     22 O3         -2.6799   -1.4268   -6.7391 O.3       1 <0>        -0.1233
     23 C15        -3.5271   -0.4327   -7.3187 C.3       1 <0>         0.0008
     24 C16        -4.0200   -0.9157   -8.6843 C.3       1 <0>         0.1153
     25 H1         -3.1647   -1.1754   -9.3082 H         1 <0>         0.1184
     26 C17        -4.8244    0.1971   -9.3591 C.3       1 <0>         0.0512
     27 O4         -5.1857   -0.2103  -10.6802 O.3       1 <0>        -0.5598
     28 O5         -4.8502   -2.0659   -8.5114 O.3       1 <0>        -0.5392
     29 H2         -0.5169    2.5653   -1.2642 H         1 <0>         0.1008
     30 H3         -2.0221    1.6224   -1.3804 H         1 <0>         0.0875
     31 H4         -1.4506    2.1947    0.2052 H         1 <0>         0.0927
     32 H5         -1.6932    0.4522   -3.1203 H         1 <0>         0.1623
     33 H6          0.5362   -2.5932    0.2979 H         1 <0>         0.0880
     34 H7          1.8697   -2.8419   -0.8545 H         1 <0>         0.0883
     35 H8          1.6804   -1.2717   -0.0379 H         1 <0>         0.1091
     36 H9          1.1442   -3.6829   -3.7439 H         1 <0>         0.4307
     37 H10        -1.0190   -3.5621   -0.8590 H         1 <0>         0.1347
     38 H11        -1.7485   -5.5377    0.4138 H         1 <0>         0.1390
     39 H12         0.3855   -8.0722   -2.2740 H         1 <0>         0.1471
     40 H13        -2.4021   -0.2236   -5.0674 H         1 <0>         0.4050
     41 H14        -4.3817   -0.2576   -6.6652 H         1 <0>         0.0690
     42 H15        -2.9677    0.4947   -7.4416 H         1 <0>         0.0751
     43 H16        -5.7266    0.3953   -8.7805 H         1 <0>         0.0539
     44 H17        -4.2196    1.1025   -9.4107 H         1 <0>         0.0595
     45 H18        -5.6988    0.4481  -11.1684 H         1 <0>         0.3850
     46 H19        -5.6324   -1.9079   -7.9653 H         1 <0>         0.3741
@<TRIPOS>BOND
     1    1    2 1
     2    1   29 1
     3    1   30 1
     4    1   31 1
     5    2    3 2
     6    2    4 1
     7    4    8 1
     8    4    5 2
     9    5    6 1
    10    5   32 1
    11    6    7 2
    12    6   19 1
    13    7    8 1
    14    7   10 1
    15    8    9 1
    16    9   33 1
    17    9   34 1
    18    9   35 1
    19   10   11 1
    20   10   36 1
    21   11   16 ar
    22   11   12 ar
    23   12   13 ar
    24   12   37 1
    25   13   14 ar
    26   13   38 1
    27   14   15 ar
    28   14   18 1
    29   15   16 ar
    30   15   39 1
    31   16   17 1
    32   19   20 2
    33   19   21 am
    34   21   22 1
    35   21   40 1
    36   22   23 1
    37   23   24 1
    38   23   41 1
    39   23   42 1
    40   24   25 1
    41   24   26 1
    42   24   28 1
    43   26   27 1
    44   26   43 1
    45   26   44 1
    46   27   45 1
    47   28   46 1
@<TRIPOS>MOLECULE
CHEMBL323515
   68    72     0     0     0
SMALL
USER_CHARGES

@<TRIPOS>ATOM
      1 C1          8.1846   -2.2796    3.1039 C.3       1 <0>         0.0690
      2 N1          6.9617   -1.7129    3.6780 N.pl3     1 <0>        -0.4473
      3 C2          6.7387   -0.3902    3.9864 C.2       1 <0>        -0.0437
      4 C3          5.4942   -0.3089    4.4879 C.2       1 <0>        -0.0195
      5 N2          4.9588   -1.5409    4.4921 N.2       1 <0>        -0.4772
      6 C4          5.8283   -2.3936    4.0023 C.2       1 <0>         0.1729
      7 S1          5.5735   -4.1257    3.8030 S.3       1 <0>         0.0927
      8 C5          3.9958   -4.4113    4.5335 C.ar      1 <0>        -0.1656
      9 C6          2.8859   -4.6288    3.7270 C.ar      1 <0>         0.0017
     10 C7          1.6497   -4.8520    4.2992 C.ar      1 <0>        -0.1812
     11 C8          1.5149   -4.8594    5.6820 C.ar      1 <0>         0.2433
     12 C9          2.6241   -4.6421    6.4893 C.ar      1 <0>        -0.1843
     13 C10         3.8625   -4.4247    5.9173 C.ar      1 <0>         0.0713
     14 Cl1         5.2505   -4.1602    6.9258 Cl        1 <0>        -0.0417
     15 N3          0.2613   -5.0854    6.2615 N.pl3     1 <0>        -0.6998
     16 C11         0.0981   -4.9548    7.6257 C.ar      1 <0>         0.2582
     17 C12         0.3590   -6.0360    8.4993 C.ar      1 <0>        -0.0940
     18 C13         0.7927   -7.2756    8.0060 C.ar      1 <0>        -0.1523
     19 C14         1.0377   -8.3026    8.8711 C.ar      1 <0>         0.1265
     20 C15         0.8599   -8.1310   10.2513 C.ar      1 <0>         0.1496
     21 C16         0.4350   -6.9253   10.7606 C.ar      1 <0>        -0.1693
     22 C17         0.1769   -5.8540    9.8913 C.ar      1 <0>         0.1619
     23 N4         -0.2369   -4.6713   10.3695 N.ar      1 <0>        -0.4626
     24 C18        -0.4856   -3.6542    9.5845 C.ar      1 <0>         0.1838
     25 C19        -0.3266   -3.7432    8.1922 C.ar      1 <0>        -0.0735
     26 C20        -0.6000   -2.6113    7.3589 C.1       1 <0>         0.2433
     27 N5         -0.8169   -1.7133    6.6977 N.1       1 <0>        -0.3769
     28 O1          1.1094   -9.1663   11.0948 O.3       1 <0>        -0.2935
     29 C21         0.9097   -8.9292   12.4897 C.3       1 <0>         0.0560
     30 C22         1.2385  -10.2003   13.2753 C.3       1 <0>        -0.1489
     31 C23         1.0247   -9.9464   14.7689 C.3       1 <0>        -0.0020
     32 N6          1.3404  -11.1669   15.5231 N.4       1 <0>        -0.3935
     33 C24         2.7985  -11.4435   15.4628 C.3       1 <0>        -0.0092
     34 C25         3.0389  -12.3489   16.6969 C.3       1 <0>        -0.1458
     35 C26         2.0912  -11.7451   17.7585 C.3       1 <0>        -0.1457
     36 C27         1.0250  -10.9771   16.9555 C.3       1 <0>        -0.0082
     37 O2          1.4575   -9.5031    8.3901 O.3       1 <0>        -0.3012
     38 C28         1.6190   -9.6143    6.9746 C.3       1 <0>         0.0209
     39 H1          8.1195   -2.2572    2.0161 H         1 <0>         0.0817
     40 H2          9.0441   -1.6932    3.4286 H         1 <0>         0.0914
     41 H3          8.3000   -3.3101    3.4398 H         1 <0>         0.0887
     42 H4          7.4318    0.4270    3.8514 H         1 <0>         0.1791
     43 H5          5.0080    0.5929    4.8296 H         1 <0>         0.1714
     44 H6          2.9901   -4.6228    2.6521 H         1 <0>         0.1471
     45 H7          0.7869   -5.0207    3.6718 H         1 <0>         0.1398
     46 H8          2.5190   -4.6471    7.5642 H         1 <0>         0.1337
     47 H9         -0.4929   -5.3337    5.7043 H         1 <0>         0.4235
     48 H10         0.9320   -7.4171    6.9444 H         1 <0>         0.1512
     49 H11         0.3005   -6.8038   11.8253 H         1 <0>         0.1540
     50 H12        -0.8168   -2.7224   10.0185 H         1 <0>         0.1776
     51 H13         1.5625   -8.1202   12.8179 H         1 <0>         0.0782
     52 H14        -0.1295   -8.6517   12.6660 H         1 <0>         0.0784
     53 H15         0.5858  -11.0092   12.9472 H         1 <0>         0.1000
     54 H16         2.2778  -10.4778   13.0990 H         1 <0>         0.0996
     55 H17         1.6775   -9.1375   15.0970 H         1 <0>         0.1340
     56 H18        -0.0145   -9.6690   14.9451 H         1 <0>         0.1348
     57 H19         3.0523  -11.9710   14.5433 H         1 <0>         0.1366
     58 H20         3.3693  -10.5187   15.5470 H         1 <0>         0.1349
     59 H21         2.7649  -13.3808   16.4774 H         1 <0>         0.0984
     60 H22         4.0763  -12.2857   17.0254 H         1 <0>         0.1171
     61 H23         1.6256  -12.5375   18.3444 H         1 <0>         0.1055
     62 H24         2.6381  -11.0633   18.4099 H         1 <0>         0.1042
     63 H25         1.0629   -9.9171   17.2068 H         1 <0>         0.1317
     64 H26         0.0352  -11.3781   17.1741 H         1 <0>         0.1332
     65 H27         0.6655   -9.4193    6.4837 H         1 <0>         0.0606
     66 H28         2.3576   -8.8882    6.6350 H         1 <0>         0.0620
     67 H29         1.9570  -10.6201    6.7253 H         1 <0>         0.1091
     68 H30         0.8213  -11.9490   15.1532 H         1 <0>         0.4283
@<TRIPOS>BOND
     1    1    2 1
     2    1   39 1
     3    1   40 1
     4    1   41 1
     5    2    6 1
     6    2    3 1
     7    3    4 2
     8    3   42 1
     9    4    5 1
    10    4   43 1
    11    5    6 2
    12    6    7 1
    13    7    8 1
    14    8   13 ar
    15    8    9 ar
    16    9   10 ar
    17    9   44 1
    18   10   11 ar
    19   10   45 1
    20   11   12 ar
    21   11   15 1
    22   12   13 ar
    23   12   46 1
    24   13   14 1
    25   15   16 1
    26   15   47 1
    27   16   25 ar
    28   16   17 ar
    29   17   22 ar
    30   17   18 ar
    31   18   19 ar
    32   18   48 1
    33   19   20 ar
    34   19   37 1
    35   20   21 ar
    36   20   28 1
    37   21   22 ar
    38   21   49 1
    39   22   23 ar
    40   23   24 ar
    41   24   25 ar
    42   24   50 1
    43   25   26 1
    44   26   27 3
    45   28   29 1
    46   29   30 1
    47   29   51 1
    48   29   52 1
    49   30   31 1
    50   30   53 1
    51   30   54 1
    52   31   32 1
    53   31   55 1
    54   31   56 1
    55   32   36 1
    56   32   33 1
    57   32   68 1
    58   33   34 1
    59   33   57 1
    60   33   58 1
    61   34   35 1
    62   34   59 1
    63   34   60 1
    64   35   36 1
    65   35   61 1
    66   35   62 1
    67   36   63 1
    68   36   64 1
    69   37   38 1
    70   38   65 1
    71   38   66 1
    72   38   67 1
@<TRIPOS>MOLECULE
CHEMBL55934
   18    19     0     0     0
SMALL
USER_CHARGES

@<TRIPOS>ATOM
      1 C1         -0.0167    1.3821    0.0096 C.ar      1 <0>        -0.0981
      2 C2          1.1647    2.0985    0.0022 C.ar      1 <0>        -0.0981
      3 C3          2.3850    1.4409   -0.0130 C.ar      1 <0>        -0.0670
      4 C4          2.4201    0.0516   -0.0208 C.ar      1 <0>        -0.1273
      5 C5          1.2176   -0.6776   -0.0132 C.ar      1 <0>        -0.1273
      6 C6          0.0021   -0.0041    0.0020 C.ar      1 <0>        -0.0670
      7 C7          1.2665   -2.1556   -0.0211 C.2       1 <0>         0.4132
      8 O1          0.2365   -2.7998   -0.0152 O.2       1 <0>        -0.4213
      9 C8          2.5707   -2.8448   -0.0368 C.2       1 <0>        -0.1396
     10 C9          3.7162   -2.1502   -0.0436 C.2       1 <0>        -0.1395
     11 C10         3.7080   -0.6750   -0.0365 C.2       1 <0>         0.4132
     12 O2          4.7553   -0.0594   -0.0433 O.2       1 <0>        -0.4213
     13 H1         -0.9612    1.9056    0.0260 H         1 <0>         0.1393
     14 H2          1.1373    3.1781    0.0079 H         1 <0>         0.1393
     15 H3          3.3052    2.0062   -0.0191 H         1 <0>         0.1440
     16 H4         -0.9247   -0.5586    0.0083 H         1 <0>         0.1440
     17 H5          2.6025   -3.9244   -0.0424 H         1 <0>         0.1567
     18 H6          4.6587   -2.6775   -0.0543 H         1 <0>         0.1567
@<TRIPOS>BOND
     1    1    6 ar
     2    1    2 ar
     3    1   13 1
     4    2    3 ar
     5    2   14 1
     6    3    4 ar
     7    3   15 1
     8    4   11 1
     9    4    5 ar
    10    5    6 ar
    11    5    7 1
    12    6   16 1
    13    7    8 2
    14    7    9 1
    15    9   10 2
    16    9   17 1
    17   10   11 1
    18   10   18 1
    19   11   12 2
@<TRIPOS>MOLECULE
CHEMBL37504
   43    45     0     0     0
SMALL
USER_CHARGES

@<TRIPOS>ATOM
      1 C1          2.3540    1.4724    2.8846 C.ar      1 <0>        -0.1518
      2 C2          2.3987    0.0919    2.9493 C.ar      1 <0>        -0.0819
      3 C3          2.7590   -0.6417    1.8357 C.ar      1 <0>        -0.1950
      4 C4          3.0763    0.0080    0.6514 C.ar      1 <0>         0.1201
      5 C5          3.0306    1.3934    0.5891 C.ar      1 <0>        -0.1454
      6 C6          2.6696    2.1222    1.7057 C.ar      1 <0>        -0.0827
      7 O1          3.4315   -0.7113   -0.4454 O.3       1 <0>        -0.2587
      8 C7          3.5442   -2.0592   -0.3154 C.ar      1 <0>         0.0889
      9 C8          2.4040   -2.8522   -0.2927 C.ar      1 <0>        -0.1283
     10 C9          2.5130   -4.2240   -0.1606 C.ar      1 <0>        -0.1009
     11 C10         3.7556   -4.8144   -0.0508 C.ar      1 <0>        -0.1075
     12 C11         4.9067   -4.0256   -0.0731 C.ar      1 <0>        -0.0078
     13 C12         4.7958   -2.6422   -0.2113 C.ar      1 <0>        -0.1038
     14 C13         6.2410   -4.6556    0.0449 C.2       1 <0>        -0.1231
     15 C14         6.6958   -5.5089   -0.9503 C.2       1 <0>         0.2196
     16 N1          5.9087   -5.7688   -2.0439 N.pl3     1 <0>        -0.8257
     17 S1          8.2841   -6.2588   -0.8098 S.3       1 <0>         0.0208
     18 C15         9.1903   -5.5954   -2.1675 C.ar      1 <0>        -0.1938
     19 C16         8.6360   -4.5937   -2.9509 C.ar      1 <0>        -0.0715
     20 C17         9.3487   -4.0749   -4.0155 C.ar      1 <0>        -0.1610
     21 C18        10.6144   -4.5517   -4.3037 C.ar      1 <0>        -0.0625
     22 C19        11.1746   -5.5501   -3.5288 C.ar      1 <0>        -0.1839
     23 C20        10.4696   -6.0720   -2.4545 C.ar      1 <0>         0.2488
     24 N2         11.0370   -7.0781   -1.6651 N.pl3     1 <0>        -0.8700
     25 C21         7.0624   -4.3844    1.1861 C.1       1 <0>         0.2688
     26 N3          7.7141   -4.1692    2.0914 N.1       1 <0>        -0.4213
     27 H1          2.0677    2.0438    3.7552 H         1 <0>         0.1258
     28 H2          2.1520   -0.4133    3.8715 H         1 <0>         0.1262
     29 H3          2.7941   -1.7199    1.8869 H         1 <0>         0.1287
     30 H4          3.2771    1.9015   -0.3315 H         1 <0>         0.1326
     31 H5          2.6336    3.2006    1.6576 H         1 <0>         0.1318
     32 H6          1.4291   -2.3955   -0.3782 H         1 <0>         0.1327
     33 H7          1.6229   -4.8355   -0.1428 H         1 <0>         0.1353
     34 H8          3.8372   -5.8863    0.0526 H         1 <0>         0.1333
     35 H9          5.6833   -2.0272   -0.2329 H         1 <0>         0.1342
     36 H10         5.0698   -5.2961   -2.1610 H         1 <0>         0.4071
     37 H11         6.1911   -6.4253   -2.6997 H         1 <0>         0.4115
     38 H12         7.6475   -4.2194   -2.7292 H         1 <0>         0.1248
     39 H13         8.9156   -3.2950   -4.6243 H         1 <0>         0.1253
     40 H14        11.1668   -4.1430   -5.1370 H         1 <0>         0.1277
     41 H15        12.1631   -5.9205   -3.7573 H         1 <0>         0.1291
     42 H16        10.5407   -7.4454   -0.9170 H         1 <0>         0.3993
     43 H17        11.9266   -7.4085   -1.8660 H         1 <0>         0.4042
@<TRIPOS>BOND
     1    1    6 ar
     2    1    2 ar
     3    1   27 1
     4    2    3 ar
     5    2   28 1
     6    3    4 ar
     7    3   29 1
     8    4    5 ar
     9    4    7 1
    10    5    6 ar
    11    5   30 1
    12    6   31 1
    13    7    8 1
    14    8   13 ar
    15    8    9 ar
    16    9   10 ar
    17    9   32 1
    18   10   11 ar
    19   10   33 1
    20   11   12 ar
    21   11   34 1
    22   12   13 ar
    23   12   14 1
    24   13   35 1
    25   14   15 2
    26   14   25 1
    27   15   16 1
    28   15   17 1
    29   16   36 1
    30   16   37 1
    31   17   18 1
    32   18   23 ar
    33   18   19 ar
    34   19   20 ar
    35   19   38 1
    36   20   21 ar
    37   20   39 1
    38   21   22 ar
    39   21   40 1
    40   22   23 ar
    41   22   41 1
    42   23   24 1
    43   24   42 1
    44   24   43 1
    45   25   26 3
@<TRIPOS>MOLECULE
CHEMBL37504__1
   43    45     0     0     0
SMALL
USER_CHARGES

@<TRIPOS>ATOM
      1 C1          4.2885    1.3366   -3.1245 C.ar      1 <0>        -0.1540
      2 C2          3.9883    1.9932   -1.9453 C.ar      1 <0>        -0.0832
      3 C3          3.6948    1.2696   -0.8058 C.ar      1 <0>        -0.1469
      4 C4          3.7014   -0.1174   -0.8453 C.ar      1 <0>         0.1214
      5 C5          4.0031   -0.7739   -2.0300 C.ar      1 <0>        -0.1945
      6 C6          4.2959   -0.0455   -3.1666 C.ar      1 <0>        -0.0823
      7 O1          3.4135   -0.8316    0.2743 O.3       1 <0>        -0.2584
      8 C7          3.3504   -2.1849    0.1691 C.ar      1 <0>         0.0833
      9 C8          2.1164   -2.8200    0.1115 C.ar      1 <0>        -0.1152
     10 C9          2.0465   -4.1965    0.0044 C.ar      1 <0>        -0.1026
     11 C10         3.2026   -4.9485   -0.0464 C.ar      1 <0>        -0.0823
     12 C11         4.4469   -4.3191    0.0104 C.ar      1 <0>        -0.0015
     13 C12         4.5162   -2.9299    0.1136 C.ar      1 <0>        -0.1157
     14 C13         5.6888   -5.1227   -0.0432 C.2       1 <0>        -0.1232
     15 C14         6.0018   -5.8404   -1.1888 C.2       1 <0>         0.2140
     16 N1          7.1532   -6.5854   -1.2385 N.pl3     1 <0>        -0.8308
     17 S1          4.9210   -5.7952   -2.5796 S.3       1 <0>         0.0440
     18 C15         4.3627   -7.4587   -2.7398 C.ar      1 <0>        -0.1964
     19 C16         4.6956   -8.4001   -1.7769 C.ar      1 <0>        -0.0738
     20 C17         4.2565   -9.7045   -1.9047 C.ar      1 <0>        -0.1606
     21 C18         3.4856  -10.0756   -2.9911 C.ar      1 <0>        -0.0624
     22 C19         3.1493   -9.1444   -3.9559 C.ar      1 <0>        -0.1833
     23 C20         3.5797   -7.8317   -3.8326 C.ar      1 <0>         0.2500
     24 N2          3.2354   -6.8861   -4.8045 N.pl3     1 <0>        -0.8697
     25 C21         6.5672   -5.1595    1.0871 C.1       1 <0>         0.2610
     26 N3          7.2641   -5.1886    1.9838 N.1       1 <0>        -0.4269
     27 H1          4.5134    1.9042   -4.0154 H         1 <0>         0.1244
     28 H2          3.9836    3.0728   -1.9150 H         1 <0>         0.1305
     29 H3          3.4607    1.7829    0.1151 H         1 <0>         0.1317
     30 H4          4.0090   -1.8533   -2.0634 H         1 <0>         0.1313
     31 H5          4.5303   -0.5559   -4.0890 H         1 <0>         0.1254
     32 H6          1.2085   -2.2364    0.1508 H         1 <0>         0.1321
     33 H7          1.0842   -4.6849   -0.0393 H         1 <0>         0.1340
     34 H8          3.1445   -6.0237   -0.1296 H         1 <0>         0.1282
     35 H9          5.4764   -2.4371    0.1542 H         1 <0>         0.1295
     36 H10         7.7097   -6.6715   -0.4487 H         1 <0>         0.4041
     37 H11         7.4106   -7.0260   -2.0635 H         1 <0>         0.4120
     38 H12         5.2981   -8.1140   -0.9275 H         1 <0>         0.1230
     39 H13         4.5167  -10.4361   -1.1541 H         1 <0>         0.1243
     40 H14         3.1454  -11.0963   -3.0863 H         1 <0>         0.1271
     41 H15         2.5476   -9.4380   -4.8034 H         1 <0>         0.1289
     42 H16         3.5412   -5.9695   -4.7191 H         1 <0>         0.3993
     43 H17         2.6910   -7.1471   -5.5636 H         1 <0>         0.4042
@<TRIPOS>BOND
     1    1    6 ar
     2    1    2 ar
     3    1   27 1
     4    2    3 ar
     5    2   28 1
     6    3    4 ar
     7    3   29 1
     8    4    5 ar
     9    4    7 1
    10    5    6 ar
    11    5   30 1
    12    6   31 1
    13    7    8 1
    14    8   13 ar
    15    8    9 ar
    16    9   10 ar
    17    9   32 1
    18   10   11 ar
    19   10   33 1
    20   11   12 ar
    21   11   34 1
    22   12   13 ar
    23   12   14 1
    24   13   35 1
    25   14   15 2
    26   14   25 1
    27   15   16 1
    28   15   17 1
    29   16   36 1
    30   16   37 1
    31   17   18 1
    32   18   23 ar
    33   18   19 ar
    34   19   20 ar
    35   19   38 1
    36   20   21 ar
    37   20   39 1
    38   21   22 ar
    39   21   40 1
    40   22   23 ar
    41   22   41 1
    42   23   24 1
    43   24   42 1
    44   24   43 1
    45   25   26 3
@<TRIPOS>MOLECULE
CHEMBL31733
   49    52     0     0     0
SMALL
USER_CHARGES

@<TRIPOS>ATOM
      1 C1         -2.9893    0.6438   -1.8364 C.3       1 <0>         0.0226
      2 O1         -3.1268   -0.7486   -1.5458 O.3       1 <0>        -0.2989
      3 C2         -3.8825   -1.0822   -0.4657 C.ar      1 <0>         0.1253
      4 C3         -4.4707   -0.0997    0.2777 C.ar      1 <0>        -0.1567
      5 C4         -5.2508   -0.4407    1.3923 C.ar      1 <0>        -0.1003
      6 C5         -5.4257   -1.8013    1.7429 C.ar      1 <0>         0.1665
      7 C6         -4.8105   -2.7928    0.9635 C.ar      1 <0>        -0.1772
      8 C7         -4.0551   -2.4319   -0.1291 C.ar      1 <0>         0.1552
      9 O2         -3.4657   -3.3939   -0.8859 O.3       1 <0>        -0.2965
     10 C8         -3.6790   -4.7508   -0.4918 C.3       1 <0>         0.0196
     11 N1         -6.1711   -2.1342    2.8071 N.ar      1 <0>        -0.4634
     12 C9         -6.7574   -1.2327    3.5526 C.ar      1 <0>         0.1793
     13 C10        -6.6387    0.1393    3.2786 C.ar      1 <0>        -0.0916
     14 C11        -5.8720    0.5563    2.1798 C.ar      1 <0>         0.2689
     15 N2         -5.7297    1.8955    1.8769 N.pl3     1 <0>        -0.7077
     16 C12        -6.6323    2.5155    1.0059 C.ar      1 <0>         0.1723
     17 C13        -7.6150    1.7648    0.3735 C.ar      1 <0>        -0.1411
     18 C14        -8.5053    2.3774   -0.4858 C.ar      1 <0>        -0.0986
     19 C15        -8.4185    3.7426   -0.7177 C.ar      1 <0>         0.0829
     20 C16        -7.4371    4.4933   -0.0864 C.ar      1 <0>        -0.1480
     21 C17        -6.5497    3.8831    0.7777 C.ar      1 <0>        -0.1382
     22 O3         -9.2952    4.3450   -1.5644 O.3       1 <0>        -0.2612
     23 C18        -9.1824    5.6862   -1.7514 C.ar      1 <0>         0.0840
     24 C19        -8.3712    6.1811   -2.7625 C.ar      1 <0>        -0.1271
     25 C20        -8.2586    7.5450   -2.9508 C.ar      1 <0>        -0.1066
     26 C21        -8.9530    8.4167   -2.1324 C.ar      1 <0>        -0.1176
     27 C22        -9.7617    7.9261   -1.1237 C.ar      1 <0>        -0.1060
     28 C23        -9.8826    6.5631   -0.9352 C.ar      1 <0>        -0.1267
     29 C24        -7.2931    1.1028    4.1117 C.1       1 <0>         0.2564
     30 N3         -7.8123    1.8672    4.7726 N.1       1 <0>        -0.3970
     31 H1         -2.3637    0.7705   -2.7200 H         1 <0>         0.1066
     32 H2         -3.9729    1.0749   -2.0227 H         1 <0>         0.0595
     33 H3         -2.5264    1.1479   -0.9881 H         1 <0>         0.0581
     34 H4         -4.3355    0.9374    0.0083 H         1 <0>         0.1487
     35 H5         -4.9336   -3.8354    1.2169 H         1 <0>         0.1571
     36 H6         -3.2991   -4.8996    0.5190 H         1 <0>         0.0626
     37 H7         -4.7460   -4.9725   -0.5151 H         1 <0>         0.0628
     38 H8         -3.1547   -5.4153   -1.1785 H         1 <0>         0.1073
     39 H9         -7.3473   -1.5518    4.3992 H         1 <0>         0.1732
     40 H10        -5.0039    2.4066    2.2679 H         1 <0>         0.4170
     41 H11        -7.6825    0.7020    0.5537 H         1 <0>         0.1278
     42 H12        -9.2692    1.7937   -0.9779 H         1 <0>         0.1354
     43 H13        -7.3702    5.5559   -0.2674 H         1 <0>         0.1308
     44 H14        -5.7889    4.4684    1.2727 H         1 <0>         0.1283
     45 H15        -7.8280    5.5007   -3.4016 H         1 <0>         0.1308
     46 H16        -7.6274    7.9307   -3.7376 H         1 <0>         0.1309
     47 H17        -8.8633    9.4827   -2.2810 H         1 <0>         0.1288
     48 H18       -10.3024    8.6092   -0.4855 H         1 <0>         0.1309
     49 H19       -10.5181    6.1803   -0.1503 H         1 <0>         0.1307
@<TRIPOS>BOND
     1    1    2 1
     2    1   31 1
     3    1   32 1
     4    1   33 1
     5    2    3 1
     6    3    8 ar
     7    3    4 ar
     8    4    5 ar
     9    4   34 1
    10    5   14 ar
    11    5    6 ar
    12    6    7 ar
    13    6   11 ar
    14    7    8 ar
    15    7   35 1
    16    8    9 1
    17    9   10 1
    18   10   36 1
    19   10   37 1
    20   10   38 1
    21   11   12 ar
    22   12   13 ar
    23   12   39 1
    24   13   14 ar
    25   13   29 1
    26   14   15 1
    27   15   16 1
    28   15   40 1
    29   16   21 ar
    30   16   17 ar
    31   17   18 ar
    32   17   41 1
    33   18   19 ar
    34   18   42 1
    35   19   20 ar
    36   19   22 1
    37   20   21 ar
    38   20   43 1
    39   21   44 1
    40   22   23 1
    41   23   28 ar
    42   23   24 ar
    43   24   25 ar
    44   24   45 1
    45   25   26 ar
    46   25   46 1
    47   26   27 ar
    48   26   47 1
    49   27   28 ar
    50   27   48 1
    51   28   49 1
    52   29   30 3
@<TRIPOS>MOLECULE
CHEMBL31639
   50    53     0     0     0
SMALL
USER_CHARGES

@<TRIPOS>ATOM
      1 C1         -6.9167    2.0244    4.6850 C.3       1 <0>         0.0228
      2 O1         -6.9008    0.6030    4.8312 O.3       1 <0>        -0.2992
      3 C2         -6.3592   -0.1164    3.8123 C.ar      1 <0>         0.1242
      4 C3         -5.8590    0.5303    2.7189 C.ar      1 <0>        -0.1552
      5 C4         -5.2998   -0.2091    1.6664 C.ar      1 <0>        -0.1015
      6 C5         -5.2558   -1.6223    1.7408 C.ar      1 <0>         0.1664
      7 C6         -5.7767   -2.2639    2.8747 C.ar      1 <0>        -0.1777
      8 C7         -6.3145   -1.5149    3.8967 C.ar      1 <0>         0.1550
      9 O2         -6.8129   -2.1380    4.9962 O.3       1 <0>        -0.2967
     10 C8         -6.7384   -3.5648    5.0230 C.3       1 <0>         0.0197
     11 N1         -4.7216   -2.3352    0.7381 N.ar      1 <0>        -0.4647
     12 C9         -4.2276   -1.7658   -0.3315 C.ar      1 <0>         0.1797
     13 C10        -4.2289   -0.3705   -0.4896 C.ar      1 <0>        -0.0935
     14 C11        -4.7739    0.4348    0.5222 C.ar      1 <0>         0.2718
     15 N2         -4.7951    1.8098    0.4050 N.pl3     1 <0>        -0.7086
     16 C12        -5.9346    2.4522   -0.0928 C.ar      1 <0>         0.1703
     17 C13        -7.0821    1.7185   -0.3656 C.ar      1 <0>        -0.1437
     18 C14        -8.2058    2.3520   -0.8570 C.ar      1 <0>        -0.1203
     19 C15        -8.1892    3.7232   -1.0784 C.ar      1 <0>         0.1423
     20 C16        -7.0418    4.4570   -0.8052 C.ar      1 <0>        -0.1179
     21 C17        -5.9197    3.8242   -0.3088 C.ar      1 <0>        -0.1419
     22 N3         -9.3282    4.3654   -1.5770 N.pl3     1 <0>        -0.6887
     23 C18        -9.1956    5.5145   -2.3600 C.ar      1 <0>         0.1838
     24 C19        -8.0743    5.6848   -3.1624 C.ar      1 <0>        -0.1660
     25 C20        -7.9465    6.8221   -3.9353 C.ar      1 <0>        -0.0864
     26 C21        -8.9330    7.7909   -3.9111 C.ar      1 <0>        -0.1557
     27 C22       -10.0503    7.6249   -3.1132 C.ar      1 <0>        -0.0857
     28 C23       -10.1876    6.4872   -2.3426 C.ar      1 <0>        -0.1694
     29 C24        -3.6799    0.2243   -1.6709 C.1       1 <0>         0.2570
     30 N4         -3.2444    0.6962   -2.6080 N.1       1 <0>        -0.3979
     31 H1         -7.3742    2.4752    5.5656 H         1 <0>         0.1063
     32 H2         -5.8954    2.3902    4.5787 H         1 <0>         0.0582
     33 H3         -7.4925    2.2921    3.7991 H         1 <0>         0.0595
     34 H4         -5.8941    1.6083    2.6644 H         1 <0>         0.1491
     35 H5         -5.7515   -3.3412    2.9475 H         1 <0>         0.1568
     36 H6         -7.2928   -3.9735    4.1782 H         1 <0>         0.0625
     37 H7         -5.6956   -3.8754    4.9578 H         1 <0>         0.0625
     38 H8         -7.1699   -3.9337    5.9534 H         1 <0>         0.1072
     39 H9         -3.8084   -2.3840   -1.1116 H         1 <0>         0.1727
     40 H10        -4.0203    2.3309    0.6676 H         1 <0>         0.4165
     41 H11        -7.0950    0.6524   -0.1935 H         1 <0>         0.1218
     42 H12        -9.0978    1.7815   -1.0697 H         1 <0>         0.1258
     43 H13        -7.0288    5.5231   -0.9773 H         1 <0>         0.1291
     44 H14        -5.0289    4.3953   -0.0926 H         1 <0>         0.1267
     45 H15       -10.2097    4.0125   -1.3789 H         1 <0>         0.4085
     46 H16        -7.3033    4.9287   -3.1815 H         1 <0>         0.1242
     47 H17        -7.0749    6.9552   -4.5590 H         1 <0>         0.1231
     48 H18        -8.8305    8.6794   -4.5165 H         1 <0>         0.1213
     49 H19       -10.8187    8.3836   -3.0965 H         1 <0>         0.1238
     50 H20       -11.0628    6.3558   -1.7236 H         1 <0>         0.1223
@<TRIPOS>BOND
     1    1    2 1
     2    1   31 1
     3    1   32 1
     4    1   33 1
     5    2    3 1
     6    3    8 ar
     7    3    4 ar
     8    4    5 ar
     9    4   34 1
    10    5   14 ar
    11    5    6 ar
    12    6    7 ar
    13    6   11 ar
    14    7    8 ar
    15    7   35 1
    16    8    9 1
    17    9   10 1
    18   10   36 1
    19   10   37 1
    20   10   38 1
    21   11   12 ar
    22   12   13 ar
    23   12   39 1
    24   13   14 ar
    25   13   29 1
    26   14   15 1
    27   15   16 1
    28   15   40 1
    29   16   21 ar
    30   16   17 ar
    31   17   18 ar
    32   17   41 1
    33   18   19 ar
    34   18   42 1
    35   19   20 ar
    36   19   22 1
    37   20   21 ar
    38   20   43 1
    39   21   44 1
    40   22   23 1
    41   22   45 1
    42   23   28 ar
    43   23   24 ar
    44   24   25 ar
    45   24   46 1
    46   25   26 ar
    47   25   47 1
    48   26   27 ar
    49   26   48 1
    50   27   28 ar
    51   27   49 1
    52   28   50 1
    53   29   30 3
@<TRIPOS>MOLECULE
CHEMBL202286
   63    67     0     0     0
SMALL
USER_CHARGES

@<TRIPOS>ATOM
      1 C1         -1.3906    1.2602    0.4348 C.3       1 <0>        -0.0873
      2 C2         -1.3429   -0.2155    0.1329 C.2       1 <0>        -0.1051
      3 C3         -1.8254   -0.8457   -1.0189 C.2       1 <0>         0.0865
      4 C4         -1.5862   -2.1822   -0.8950 C.2       1 <0>         0.0541
      5 N1         -0.9704   -2.4131    0.2943 N.pl3     1 <0>        -0.2487
      6 C5         -0.8072   -1.2056    0.9408 C.2       1 <0>        -0.0403
      7 C6         -0.1820   -1.1723    2.2059 C.2       1 <0>         0.3451
      8 C7          0.2595   -2.3775    2.7673 C.2       1 <0>        -0.1556
      9 C8          0.0680   -3.5850    2.0564 C.2       1 <0>         0.1809
     10 N2         -0.5177   -3.5947    0.8944 N.2       1 <0>        -0.2637
     11 C9          0.8990   -2.3865    4.0485 C.1       1 <0>         0.2636
     12 N3          1.4063   -2.3937    5.0650 N.1       1 <0>        -0.4052
     13 N4         -0.0087    0.0233    2.8759 N.pl3     1 <0>        -0.6878
     14 C10         0.8371    1.0049    2.3480 C.ar      1 <0>         0.1657
     15 C11         1.5593    0.7498    1.1892 C.ar      1 <0>        -0.1295
     16 C12         2.3933    1.7192    0.6686 C.ar      1 <0>        -0.1010
     17 C13         2.5105    2.9477    1.3028 C.ar      1 <0>         0.0886
     18 C14         1.7897    3.2031    2.4606 C.ar      1 <0>        -0.1522
     19 C15         0.9505    2.2370    2.9791 C.ar      1 <0>        -0.1308
     20 O1          3.3323    3.9016    0.7898 O.3       1 <0>        -0.2592
     21 C16         3.3432    5.1224    1.3864 C.ar      1 <0>         0.0852
     22 C17         4.0067    5.3010    2.5919 C.ar      1 <0>        -0.1359
     23 C18         4.0166    6.5432    3.1960 C.ar      1 <0>        -0.1053
     24 C19         3.3656    7.6080    2.6008 C.ar      1 <0>        -0.1189
     25 C20         2.7033    7.4326    1.3998 C.ar      1 <0>        -0.1047
     26 C21         2.6955    6.1940    0.7883 C.ar      1 <0>        -0.1220
     27 N5         -2.4467   -0.2140   -2.1092 N.am      1 <0>        -0.6359
     28 C22        -2.8667   -0.9441   -3.1613 C.2       1 <0>         0.5613
     29 O2         -2.7080   -2.1495   -3.1669 O.2       1 <0>        -0.5127
     30 C23        -3.5205   -0.2793   -4.3085 C.ar      1 <0>        -0.1148
     31 C24        -3.6988    1.1055   -4.3071 C.ar      1 <0>        -0.1017
     32 C25        -4.3089    1.7235   -5.3793 C.ar      1 <0>        -0.1033
     33 C26        -4.7453    0.9761   -6.4574 C.ar      1 <0>        -0.1165
     34 C27        -4.5730   -0.4027   -6.4683 C.ar      1 <0>         0.1403
     35 C28        -3.9561   -1.0326   -5.3985 C.ar      1 <0>        -0.0585
     36 N6         -5.0171   -1.1548   -7.5619 N.am      1 <0>        -0.6776
     37 C29        -5.5023   -2.3978   -7.3724 C.2       1 <0>         0.5086
     38 O3         -5.6523   -2.8252   -6.2473 O.2       1 <0>        -0.5173
     39 C30        -5.8586   -3.2565   -8.5584 C.3       1 <0>        -0.1717
     40 H1         -0.4758    1.7337    0.0785 H         1 <0>         0.0763
     41 H2         -2.2496    1.7060   -0.0668 H         1 <0>         0.0636
     42 H3         -1.4811    1.4081    1.5109 H         1 <0>         0.0722
     43 H4         -1.8447   -2.9358   -1.6241 H         1 <0>         0.2068
     44 H5          0.4078   -4.5150    2.4878 H         1 <0>         0.2034
     45 H6         -0.4734    0.1822    3.7124 H         1 <0>         0.4210
     46 H7          1.4688   -0.2066    0.6958 H         1 <0>         0.1293
     47 H8          2.9550    1.5210   -0.2323 H         1 <0>         0.1360
     48 H9          1.8820    4.1593    2.9541 H         1 <0>         0.1335
     49 H10         0.3859    2.4377    3.8776 H         1 <0>         0.1299
     50 H11         4.5148    4.4694    3.0576 H         1 <0>         0.1303
     51 H12         4.5330    6.6827    4.1342 H         1 <0>         0.1302
     52 H13         3.3743    8.5783    3.0749 H         1 <0>         0.1286
     53 H14         2.1950    8.2658    0.9373 H         1 <0>         0.1316
     54 H15         2.1820    6.0587   -0.1521 H         1 <0>         0.1321
     55 H16        -2.5734    0.7477   -2.1047 H         1 <0>         0.4143
     56 H17        -3.3596    1.6928   -3.4667 H         1 <0>         0.1279
     57 H18        -4.4462    2.7948   -5.3763 H         1 <0>         0.1368
     58 H19        -5.2222    1.4654   -7.2938 H         1 <0>         0.1332
     59 H20        -3.8172   -2.1036   -5.4070 H         1 <0>         0.1490
     60 H21        -4.9756   -0.7814   -8.4562 H         1 <0>         0.4143
     61 H22        -4.9880   -3.8392   -8.8596 H         1 <0>         0.1004
     62 H23        -6.6712   -3.9307   -8.2879 H         1 <0>         0.0990
     63 H24        -6.1741   -2.6207   -9.3857 H         1 <0>         0.0834
@<TRIPOS>BOND
     1    1    2 1
     2    1   40 1
     3    1   41 1
     4    1   42 1
     5    2    6 2
     6    2    3 1
     7    3    4 2
     8    3   27 1
     9    4    5 1
    10    4   43 1
    11    5   10 1
    12    5    6 1
    13    6    7 1
    14    7    8 2
    15    7   13 1
    16    8    9 1
    17    8   11 1
    18    9   10 2
    19    9   44 1
    20   11   12 3
    21   13   14 1
    22   13   45 1
    23   14   19 ar
    24   14   15 ar
    25   15   16 ar
    26   15   46 1
    27   16   17 ar
    28   16   47 1
    29   17   18 ar
    30   17   20 1
    31   18   19 ar
    32   18   48 1
    33   19   49 1
    34   20   21 1
    35   21   26 ar
    36   21   22 ar
    37   22   23 ar
    38   22   50 1
    39   23   24 ar
    40   23   51 1
    41   24   25 ar
    42   24   52 1
    43   25   26 ar
    44   25   53 1
    45   26   54 1
    46   27   28 am
    47   27   55 1
    48   28   29 2
    49   28   30 1
    50   30   35 ar
    51   30   31 ar
    52   31   32 ar
    53   31   56 1
    54   32   33 ar
    55   32   57 1
    56   33   34 ar
    57   33   58 1
    58   34   35 ar
    59   34   36 1
    60   35   59 1
    61   36   37 am
    62   36   60 1
    63   37   38 2
    64   37   39 1
    65   39   61 1
    66   39   62 1
    67   39   63 1
@<TRIPOS>MOLECULE
CHEMBL38321
   45    47     0     0     0
SMALL
USER_CHARGES

@<TRIPOS>ATOM
      1 C1          1.0397   -0.3000   -3.1720 C.ar      1 <0>        -0.0630
      2 C2          2.2342    0.3969   -3.1800 C.ar      1 <0>        -0.1608
      3 C3          3.1372    0.2410   -2.1453 C.ar      1 <0>        -0.0731
      4 C4          2.8463   -0.6163   -1.0942 C.ar      1 <0>        -0.1924
      5 C5          1.6411   -1.3190   -1.0858 C.ar      1 <0>         0.2484
      6 C6          0.7413   -1.1566   -2.1287 C.ar      1 <0>        -0.1834
      7 N1          1.3414   -2.1853   -0.0290 N.pl3     1 <0>        -0.8699
      8 S1          3.9957   -0.8176    0.2260 S.3       1 <0>         0.0171
      9 C7          5.2449    0.3787   -0.1102 C.2       1 <0>         0.2161
     10 C8          6.5288   -0.0325   -0.4390 C.2       1 <0>        -0.1214
     11 C9          6.8385   -1.4290   -0.5049 C.1       1 <0>         0.2693
     12 N2          7.0842   -2.5369   -0.5572 N.1       1 <0>        -0.4227
     13 C10         7.5782    0.9725   -0.7215 C.ar      1 <0>        -0.0184
     14 C11         7.4614    1.8157   -1.8274 C.ar      1 <0>        -0.1049
     15 C12         8.4428    2.7501   -2.0853 C.ar      1 <0>        -0.1093
     16 C13         9.5416    2.8522   -1.2503 C.ar      1 <0>        -0.1046
     17 C14         9.6635    2.0191   -0.1526 C.ar      1 <0>        -0.1104
     18 C15         8.6854    1.0847    0.1200 C.ar      1 <0>        -0.0875
     19 C16        10.8637    2.1368    0.7511 C.3       1 <0>         0.1952
     20 C17        10.6169    3.2134    1.7763 C.ar      1 <0>        -0.1651
     21 C18        10.2261    2.8800    3.0644 C.ar      1 <0>        -0.0620
     22 C19        10.0103    3.9035    3.9741 C.ar      1 <0>        -0.1677
     23 C20        10.1905    5.2130    3.5699 C.ar      1 <0>         0.0998
     24 N3         10.5625    5.4930    2.3363 N.ar      1 <0>        -0.4793
     25 C21        10.7826    4.5450    1.4463 C.ar      1 <0>         0.1100
     26 O1         12.0142    2.4742   -0.0265 O.3       1 <0>        -0.5421
     27 N4          4.9481    1.7170   -0.0470 N.pl3     1 <0>        -0.8255
     28 H1          0.3359   -0.1713   -3.9810 H         1 <0>         0.1277
     29 H2          2.4623    1.0648   -3.9975 H         1 <0>         0.1253
     30 H3          4.0693    0.7864   -2.1552 H         1 <0>         0.1240
     31 H4         -0.1926   -1.6989   -2.1255 H         1 <0>         0.1291
     32 H5          1.9719   -2.2981    0.6995 H         1 <0>         0.3993
     33 H6          0.5030   -2.6732   -0.0247 H         1 <0>         0.4042
     34 H7          6.6047    1.7365   -2.4802 H         1 <0>         0.1264
     35 H8          8.3536    3.4032   -2.9408 H         1 <0>         0.1297
     36 H9         10.3075    3.5852   -1.4566 H         1 <0>         0.1218
     37 H10         8.7793    0.4381    0.9799 H         1 <0>         0.1260
     38 H11        11.0328    1.1859    1.2563 H         1 <0>         0.1195
     39 H12        10.0927    1.8476    3.3518 H         1 <0>         0.1367
     40 H13         9.7049    3.6806    4.9857 H         1 <0>         0.1386
     41 H14        10.0245    6.0162    4.2726 H         1 <0>         0.1582
     42 H15        11.0915    4.8126    0.4466 H         1 <0>         0.1495
     43 H16        11.9340    3.3108   -0.5048 H         1 <0>         0.3745
     44 H17         4.0347    2.0044    0.1081 H         1 <0>         0.4101
     45 H18         5.6516    2.3756   -0.1575 H         1 <0>         0.4068
@<TRIPOS>BOND
     1    1    6 ar
     2    1    2 ar
     3    1   28 1
     4    2    3 ar
     5    2   29 1
     6    3    4 ar
     7    3   30 1
     8    4    5 ar
     9    4    8 1
    10    5    6 ar
    11    5    7 1
    12    6   31 1
    13    7   32 1
    14    7   33 1
    15    8    9 1
    16    9   10 2
    17    9   27 1
    18   10   11 1
    19   10   13 1
    20   11   12 3
    21   13   18 ar
    22   13   14 ar
    23   14   15 ar
    24   14   34 1
    25   15   16 ar
    26   15   35 1
    27   16   17 ar
    28   16   36 1
    29   17   18 ar
    30   17   19 1
    31   18   37 1
    32   19   20 1
    33   19   26 1
    34   19   38 1
    35   20   25 ar
    36   20   21 ar
    37   21   22 ar
    38   21   39 1
    39   22   23 ar
    40   22   40 1
    41   23   24 ar
    42   23   41 1
    43   24   25 ar
    44   25   42 1
    45   26   43 1
    46   27   44 1
    47   27   45 1
@<TRIPOS>MOLECULE
CHEMBL38321__1
   45    47     0     0     0
SMALL
USER_CHARGES

@<TRIPOS>ATOM
      1 C1          1.7816   -0.0928   -4.0219 C.ar      1 <0>        -0.0637
      2 C2          2.9467    0.5957   -3.7371 C.ar      1 <0>        -0.1617
      3 C3          3.6088    0.3781   -2.5435 C.ar      1 <0>        -0.0716
      4 C4          3.1047   -0.5329   -1.6268 C.ar      1 <0>        -0.1937
      5 C5          1.9291   -1.2271   -1.9139 C.ar      1 <0>         0.2489
      6 C6          1.2718   -1.0025   -3.1143 C.ar      1 <0>        -0.1837
      7 N1          1.4151   -2.1472   -0.9939 N.pl3     1 <0>        -0.8699
      8 S1          3.9469   -0.8128   -0.1046 S.3       1 <0>         0.0414
      9 C7          5.2449    0.3787   -0.1102 C.2       1 <0>         0.2100
     10 C8          6.5673   -0.0362   -0.1786 C.2       1 <0>        -0.1205
     11 C9          7.6222    0.9321   -0.1832 C.1       1 <0>         0.2611
     12 N2          8.4591    1.7003   -0.1868 N.1       1 <0>        -0.4287
     13 C10         6.8874   -1.4798   -0.2467 C.ar      1 <0>        -0.0080
     14 C11         6.5795   -2.3173    0.8263 C.ar      1 <0>        -0.0874
     15 C12         6.8805   -3.6616    0.7566 C.ar      1 <0>        -0.1106
     16 C13         7.4868   -4.1802   -0.3740 C.ar      1 <0>        -0.1039
     17 C14         7.7951   -3.3553   -1.4409 C.ar      1 <0>        -0.1131
     18 C15         7.4931   -2.0100   -1.3863 C.ar      1 <0>        -0.0857
     19 C16         8.4559   -3.9284   -2.6681 C.3       1 <0>         0.1960
     20 C17         7.4035   -4.4877   -3.5904 C.ar      1 <0>        -0.1626
     21 C18         6.9783   -3.7617   -4.6928 C.ar      1 <0>        -0.0613
     22 C19         6.0082   -4.3157   -5.5135 C.ar      1 <0>        -0.1668
     23 C20         5.5004   -5.5645   -5.2080 C.ar      1 <0>         0.0991
     24 N3          5.9282   -6.2263   -4.1508 N.ar      1 <0>        -0.4793
     25 C21         6.8541   -5.7329   -3.3516 C.ar      1 <0>         0.1104
     26 O1          9.3541   -4.9708   -2.2826 O.3       1 <0>        -0.5432
     27 N4          4.9481    1.7170   -0.0470 N.pl3     1 <0>        -0.8324
     28 H1          1.2660    0.0840   -4.9543 H         1 <0>         0.1265
     29 H2          3.3405    1.3053   -4.4497 H         1 <0>         0.1232
     30 H3          4.5188    0.9170   -2.3248 H         1 <0>         0.1214
     31 H4          0.3615   -1.5381   -3.3400 H         1 <0>         0.1282
     32 H5          1.8762   -2.3034   -0.1549 H         1 <0>         0.3990
     33 H6          0.5976   -2.6291   -1.1951 H         1 <0>         0.4039
     34 H7          6.1069   -1.9136    1.7096 H         1 <0>         0.1244
     35 H8          6.6427   -4.3108    1.5864 H         1 <0>         0.1282
     36 H9          7.7208   -5.2334   -0.4236 H         1 <0>         0.1197
     37 H10         7.7298   -1.3679   -2.2218 H         1 <0>         0.1215
     38 H11         9.0098   -3.1432   -3.1826 H         1 <0>         0.1175
     39 H12         7.3929   -2.7876   -4.9066 H         1 <0>         0.1351
     40 H13         5.6533   -3.7782   -6.3805 H         1 <0>         0.1372
     41 H14         4.7444   -6.0031   -5.8423 H         1 <0>         0.1567
     42 H15         7.1833   -6.3067   -2.4979 H         1 <0>         0.1491
     43 H16         8.9288   -5.7048   -1.8184 H         1 <0>         0.3744
     44 H17         4.0347    2.0044    0.1081 H         1 <0>         0.4116
     45 H18         5.6516    2.3756   -0.1575 H         1 <0>         0.4030
@<TRIPOS>BOND
     1    1    6 ar
     2    1    2 ar
     3    1   28 1
     4    2    3 ar
     5    2   29 1
     6    3    4 ar
     7    3   30 1
     8    4    5 ar
     9    4    8 1
    10    5    6 ar
    11    5    7 1
    12    6   31 1
    13    7   32 1
    14    7   33 1
    15    8    9 1
    16    9   10 2
    17    9   27 1
    18   10   11 1
    19   10   13 1
    20   11   12 3
    21   13   18 ar
    22   13   14 ar
    23   14   15 ar
    24   14   34 1
    25   15   16 ar
    26   15   35 1
    27   16   17 ar
    28   16   36 1
    29   17   18 ar
    30   17   19 1
    31   18   37 1
    32   19   20 1
    33   19   26 1
    34   19   38 1
    35   20   25 ar
    36   20   21 ar
    37   21   22 ar
    38   21   39 1
    39   22   23 ar
    40   22   40 1
    41   23   24 ar
    42   23   41 1
    43   24   25 ar
    44   25   42 1
    45   26   43 1
    46   27   44 1
    47   27   45 1
@<TRIPOS>MOLECULE
CHEMBL38321__2
   45    47     0     0     0
SMALL
USER_CHARGES

@<TRIPOS>ATOM
      1 C1          1.0397   -0.3000   -3.1720 C.ar      1 <0>        -0.0630
      2 C2          2.2342    0.3969   -3.1800 C.ar      1 <0>        -0.1608
      3 C3          3.1372    0.2410   -2.1453 C.ar      1 <0>        -0.0731
      4 C4          2.8463   -0.6163   -1.0942 C.ar      1 <0>        -0.1924
      5 C5          1.6411   -1.3190   -1.0858 C.ar      1 <0>         0.2484
      6 C6          0.7413   -1.1566   -2.1287 C.ar      1 <0>        -0.1834
      7 N1          1.3414   -2.1853   -0.0290 N.pl3     1 <0>        -0.8698
      8 S1          3.9957   -0.8176    0.2260 S.3       1 <0>         0.0172
      9 C7          5.2449    0.3787   -0.1102 C.2       1 <0>         0.2172
     10 C8          6.5288   -0.0325   -0.4390 C.2       1 <0>        -0.1230
     11 C9          6.8385   -1.4290   -0.5049 C.1       1 <0>         0.2700
     12 N2          7.0842   -2.5369   -0.5572 N.1       1 <0>        -0.4241
     13 C10         7.5782    0.9725   -0.7215 C.ar      1 <0>        -0.0184
     14 C11         7.4614    1.8157   -1.8274 C.ar      1 <0>        -0.1046
     15 C12         8.4428    2.7501   -2.0853 C.ar      1 <0>        -0.1097
     16 C13         9.5416    2.8522   -1.2503 C.ar      1 <0>        -0.1041
     17 C14         9.6635    2.0191   -0.1526 C.ar      1 <0>        -0.1105
     18 C15         8.6854    1.0847    0.1200 C.ar      1 <0>        -0.0872
     19 C16        10.8637    2.1368    0.7511 C.3       1 <0>         0.1961
     20 C17        12.0350    1.4236    0.1261 C.ar      1 <0>        -0.1666
     21 C18        12.3190    0.1094    0.4652 C.ar      1 <0>        -0.0620
     22 C19        13.4064   -0.5066   -0.1348 C.ar      1 <0>        -0.1671
     23 C20        14.1660    0.2047   -1.0446 C.ar      1 <0>         0.1002
     24 N3         13.8665    1.4537   -1.3428 N.ar      1 <0>        -0.4794
     25 C21        12.8361    2.0693   -0.7963 C.ar      1 <0>         0.1092
     26 O1         11.1885    3.5163    0.9343 O.3       1 <0>        -0.5426
     27 N4          4.9481    1.7170   -0.0470 N.pl3     1 <0>        -0.8249
     28 H1          0.3359   -0.1713   -3.9810 H         1 <0>         0.1276
     29 H2          2.4623    1.0648   -3.9975 H         1 <0>         0.1252
     30 H3          4.0693    0.7864   -2.1552 H         1 <0>         0.1241
     31 H4         -0.1926   -1.6989   -2.1255 H         1 <0>         0.1291
     32 H5          1.9719   -2.2981    0.6995 H         1 <0>         0.3994
     33 H6          0.5030   -2.6732   -0.0247 H         1 <0>         0.4042
     34 H7          6.6047    1.7365   -2.4802 H         1 <0>         0.1264
     35 H8          8.3536    3.4032   -2.9408 H         1 <0>         0.1296
     36 H9         10.3075    3.5852   -1.4566 H         1 <0>         0.1213
     37 H10         8.7793    0.4381    0.9799 H         1 <0>         0.1263
     38 H11        10.6369    1.6855    1.7170 H         1 <0>         0.1197
     39 H12        11.7079   -0.4216    1.1800 H         1 <0>         0.1361
     40 H13        13.6572   -1.5291    0.1058 H         1 <0>         0.1388
     41 H14        15.0148   -0.2679   -1.5165 H         1 <0>         0.1585
     42 H15        12.6186    3.0913   -1.0693 H         1 <0>         0.1497
     43 H16        11.4019    3.9824    0.1144 H         1 <0>         0.3746
     44 H17         4.0347    2.0044    0.1081 H         1 <0>         0.4103
     45 H18         5.6516    2.3756   -0.1575 H         1 <0>         0.4074
@<TRIPOS>BOND
     1    1    6 ar
     2    1    2 ar
     3    1   28 1
     4    2    3 ar
     5    2   29 1
     6    3    4 ar
     7    3   30 1
     8    4    5 ar
     9    4    8 1
    10    5    6 ar
    11    5    7 1
    12    6   31 1
    13    7   32 1
    14    7   33 1
    15    8    9 1
    16    9   10 2
    17    9   27 1
    18   10   11 1
    19   10   13 1
    20   11   12 3
    21   13   18 ar
    22   13   14 ar
    23   14   15 ar
    24   14   34 1
    25   15   16 ar
    26   15   35 1
    27   16   17 ar
    28   16   36 1
    29   17   18 ar
    30   17   19 1
    31   18   37 1
    32   19   20 1
    33   19   26 1
    34   19   38 1
    35   20   25 ar
    36   20   21 ar
    37   21   22 ar
    38   21   39 1
    39   22   23 ar
    40   22   40 1
    41   23   24 ar
    42   23   41 1
    43   24   25 ar
    44   25   42 1
    45   26   43 1
    46   27   44 1
    47   27   45 1
@<TRIPOS>MOLECULE
CHEMBL38321__3
   45    47     0     0     0
SMALL
USER_CHARGES

@<TRIPOS>ATOM
      1 C1          1.7816   -0.0928   -4.0219 C.ar      1 <0>        -0.0635
      2 C2          2.9467    0.5957   -3.7371 C.ar      1 <0>        -0.1615
      3 C3          3.6088    0.3781   -2.5435 C.ar      1 <0>        -0.0717
      4 C4          3.1047   -0.5329   -1.6268 C.ar      1 <0>        -0.1942
      5 C5          1.9291   -1.2271   -1.9139 C.ar      1 <0>         0.2489
      6 C6          1.2718   -1.0025   -3.1143 C.ar      1 <0>        -0.1836
      7 N1          1.4151   -2.1472   -0.9939 N.pl3     1 <0>        -0.8699
      8 S1          3.9469   -0.8128   -0.1046 S.3       1 <0>         0.0421
      9 C7          5.2449    0.3787   -0.1102 C.2       1 <0>         0.2110
     10 C8          6.5673   -0.0362   -0.1786 C.2       1 <0>        -0.1220
     11 C9          7.6222    0.9321   -0.1832 C.1       1 <0>         0.2617
     12 N2          8.4591    1.7003   -0.1868 N.1       1 <0>        -0.4302
     13 C10         6.8874   -1.4798   -0.2467 C.ar      1 <0>        -0.0080
     14 C11         6.5795   -2.3173    0.8263 C.ar      1 <0>        -0.0870
     15 C12         6.8805   -3.6616    0.7566 C.ar      1 <0>        -0.1110
     16 C13         7.4868   -4.1802   -0.3740 C.ar      1 <0>        -0.1033
     17 C14         7.7951   -3.3553   -1.4409 C.ar      1 <0>        -0.1132
     18 C15         7.4931   -2.0100   -1.3863 C.ar      1 <0>        -0.0854
     19 C16         8.4559   -3.9284   -2.6681 C.3       1 <0>         0.1969
     20 C17         9.9325   -4.0902   -2.4143 C.ar      1 <0>        -0.1644
     21 C18        10.8236   -3.0996   -2.7985 C.ar      1 <0>        -0.0629
     22 C19        12.1729   -3.2914   -2.5450 C.ar      1 <0>        -0.1678
     23 C20        12.5824   -4.4554   -1.9220 C.ar      1 <0>         0.0991
     24 N3         11.7066   -5.3764   -1.5708 N.ar      1 <0>        -0.4794
     25 C21        10.4150   -5.2249   -1.7907 C.ar      1 <0>         0.1092
     26 O1          7.8816   -5.2022   -2.9674 O.3       1 <0>        -0.5426
     27 N4          4.9481    1.7170   -0.0470 N.pl3     1 <0>        -0.8321
     28 H1          1.2660    0.0840   -4.9543 H         1 <0>         0.1267
     29 H2          3.3405    1.3053   -4.4497 H         1 <0>         0.1235
     30 H3          4.5188    0.9170   -2.3248 H         1 <0>         0.1214
     31 H4          0.3615   -1.5381   -3.3400 H         1 <0>         0.1286
     32 H5          1.8762   -2.3034   -0.1549 H         1 <0>         0.3990
     33 H6          0.5976   -2.6291   -1.1951 H         1 <0>         0.4039
     34 H7          6.1069   -1.9136    1.7096 H         1 <0>         0.1245
     35 H8          6.6427   -4.3108    1.5864 H         1 <0>         0.1281
     36 H9          7.7208   -5.2334   -0.4236 H         1 <0>         0.1191
     37 H10         7.7298   -1.3679   -2.2218 H         1 <0>         0.1219
     38 H11         8.3038   -3.2542   -3.5110 H         1 <0>         0.1181
     39 H12        10.4747   -2.2002   -3.2841 H         1 <0>         0.1353
     40 H13        12.8952   -2.5410   -2.8309 H         1 <0>         0.1379
     41 H14        13.6318   -4.6125   -1.7209 H         1 <0>         0.1579
     42 H15         9.7270   -5.9989   -1.4841 H         1 <0>         0.1502
     43 H16         7.9798   -5.8539   -2.2598 H         1 <0>         0.3743
     44 H17         4.0347    2.0044    0.1081 H         1 <0>         0.4117
     45 H18         5.6516    2.3756   -0.1575 H         1 <0>         0.4028
@<TRIPOS>BOND
     1    1    6 ar
     2    1    2 ar
     3    1   28 1
     4    2    3 ar
     5    2   29 1
     6    3    4 ar
     7    3   30 1
     8    4    5 ar
     9    4    8 1
    10    5    6 ar
    11    5    7 1
    12    6   31 1
    13    7   32 1
    14    7   33 1
    15    8    9 1
    16    9   10 2
    17    9   27 1
    18   10   11 1
    19   10   13 1
    20   11   12 3
    21   13   18 ar
    22   13   14 ar
    23   14   15 ar
    24   14   34 1
    25   15   16 ar
    26   15   35 1
    27   16   17 ar
    28   16   36 1
    29   17   18 ar
    30   17   19 1
    31   18   37 1
    32   19   20 1
    33   19   26 1
    34   19   38 1
    35   20   25 ar
    36   20   21 ar
    37   21   22 ar
    38   21   39 1
    39   22   23 ar
    40   22   40 1
    41   23   24 ar
    42   23   41 1
    43   24   25 ar
    44   25   42 1
    45   26   43 1
    46   27   44 1
    47   27   45 1
@<TRIPOS>MOLECULE
CHEMBL35029
   50    53     0     0     0
SMALL
USER_CHARGES

@<TRIPOS>ATOM
      1 C1          1.0397   -0.3000   -3.1720 C.ar      1 <0>        -0.0660
      2 C2          2.2342    0.3969   -3.1800 C.ar      1 <0>        -0.1608
      3 C3          3.1372    0.2410   -2.1453 C.ar      1 <0>        -0.0726
      4 C4          2.8463   -0.6163   -1.0942 C.ar      1 <0>        -0.1891
      5 C5          1.6411   -1.3190   -1.0858 C.ar      1 <0>         0.2468
      6 C6          0.7413   -1.1566   -2.1287 C.ar      1 <0>        -0.1849
      7 N1          1.3414   -2.1853   -0.0290 N.pl3     1 <0>        -0.8704
      8 S1          3.9957   -0.8176    0.2260 S.3       1 <0>         0.0161
      9 C7          5.2449    0.3787   -0.1102 C.2       1 <0>         0.2140
     10 C8          6.5288   -0.0325   -0.4390 C.2       1 <0>        -0.1179
     11 C9          6.8385   -1.4290   -0.5049 C.1       1 <0>         0.2744
     12 N2          7.0842   -2.5369   -0.5572 N.1       1 <0>        -0.4302
     13 C10         7.5782    0.9725   -0.7215 C.ar      1 <0>        -0.0237
     14 C11         7.4614    1.8157   -1.8274 C.ar      1 <0>        -0.1105
     15 C12         8.4428    2.7501   -2.0853 C.ar      1 <0>        -0.1124
     16 C13         9.5416    2.8522   -1.2503 C.ar      1 <0>        -0.1027
     17 C14         9.6635    2.0191   -0.1526 C.ar      1 <0>        -0.0983
     18 C15         8.6854    1.0847    0.1200 C.ar      1 <0>        -0.0869
     19 C16        10.8637    2.1368    0.7511 C.3       1 <0>         0.1935
     20 C17        10.6169    3.2134    1.7763 C.ar      1 <0>        -0.1351
     21 C18        10.7808    4.5432    1.4319 C.ar      1 <0>        -0.1088
     22 C19        10.5558    5.5335    2.3660 C.ar      1 <0>        -0.1013
     23 C20        10.1625    5.1915    3.6597 C.ar      1 <0>         0.0540
     24 C21         9.9990    3.8491    4.0008 C.ar      1 <0>        -0.1019
     25 C22        10.2219    2.8681    3.0563 C.ar      1 <0>        -0.1063
     26 C23         9.9201    6.2491    4.6668 C.2       1 <0>         0.0726
     27 N3          9.5425    6.0730    5.9340 N.2       1 <0>        -0.3671
     28 N4          9.4414    7.2395    6.4737 N.2       1 <0>        -0.1906
     29 N5          9.7387    8.1380    5.6016 N.2       1 <0>        -0.1907
     30 N6         10.0419    7.5653    4.4871 N.2       1 <0>        -0.3674
     31 O1         12.0142    2.4742   -0.0265 O.3       1 <0>        -0.5485
     32 N7          4.9481    1.7170   -0.0470 N.pl3     1 <0>        -0.8241
     33 H1          0.3359   -0.1713   -3.9810 H         1 <0>         0.1258
     34 H2          2.4623    1.0648   -3.9975 H         1 <0>         0.1246
     35 H3          4.0693    0.7864   -2.1552 H         1 <0>         0.1258
     36 H4         -0.1926   -1.6989   -2.1255 H         1 <0>         0.1272
     37 H5          1.9719   -2.2981    0.6995 H         1 <0>         0.3999
     38 H6          0.5030   -2.6732   -0.0247 H         1 <0>         0.4027
     39 H7          6.6047    1.7365   -2.4802 H         1 <0>         0.1226
     40 H8          8.3536    3.4032   -2.9408 H         1 <0>         0.1261
     41 H9         10.3075    3.5852   -1.4566 H         1 <0>         0.1212
     42 H10         8.7793    0.4381    0.9799 H         1 <0>         0.1256
     43 H11        11.0328    1.1859    1.2563 H         1 <0>         0.1133
     44 H12        11.0857    4.8067    0.4299 H         1 <0>         0.1133
     45 H13        10.6844    6.5713    2.0961 H         1 <0>         0.1291
     46 H14         9.6950    3.5782    5.0011 H         1 <0>         0.1294
     47 H15        10.0913    1.8285    3.3180 H         1 <0>         0.1189
     48 H16        11.9340    3.3108   -0.5048 H         1 <0>         0.3724
     49 H17         4.0347    2.0044    0.1081 H         1 <0>         0.4090
     50 H18         5.6516    2.3756   -0.1575 H         1 <0>         0.4098
@<TRIPOS>BOND
     1    1    6 ar
     2    1    2 ar
     3    1   33 1
     4    2    3 ar
     5    2   34 1
     6    3    4 ar
     7    3   35 1
     8    4    5 ar
     9    4    8 1
    10    5    6 ar
    11    5    7 1
    12    6   36 1
    13    7   37 1
    14    7   38 1
    15    8    9 1
    16    9   10 2
    17    9   32 1
    18   10   11 1
    19   10   13 1
    20   11   12 3
    21   13   18 ar
    22   13   14 ar
    23   14   15 ar
    24   14   39 1
    25   15   16 ar
    26   15   40 1
    27   16   17 ar
    28   16   41 1
    29   17   18 ar
    30   17   19 1
    31   18   42 1
    32   19   20 1
    33   19   31 1
    34   19   43 1
    35   20   25 ar
    36   20   21 ar
    37   21   22 ar
    38   21   44 1
    39   22   23 ar
    40   22   45 1
    41   23   24 ar
    42   23   26 1
    43   24   25 ar
    44   24   46 1
    45   25   47 1
    46   26   27 2
    47   26   30 1
    48   27   28 1
    49   28   29 2
    50   29   30 1
    51   31   48 1
    52   32   49 1
    53   32   50 1
@<TRIPOS>MOLECULE
CHEMBL35029__1
   50    53     0     0     0
SMALL
USER_CHARGES

@<TRIPOS>ATOM
      1 C1          1.7816   -0.0928   -4.0219 C.ar      1 <0>        -0.0608
      2 C2          2.9467    0.5957   -3.7371 C.ar      1 <0>        -0.1609
      3 C3          3.6088    0.3781   -2.5435 C.ar      1 <0>        -0.0715
      4 C4          3.1047   -0.5329   -1.6268 C.ar      1 <0>        -0.1937
      5 C5          1.9291   -1.2271   -1.9139 C.ar      1 <0>         0.2500
      6 C6          1.2718   -1.0025   -3.1143 C.ar      1 <0>        -0.1808
      7 N1          1.4151   -2.1472   -0.9939 N.pl3     1 <0>        -0.8697
      8 S1          3.9469   -0.8128   -0.1046 S.3       1 <0>         0.0404
      9 C7          5.2449    0.3787   -0.1102 C.2       1 <0>         0.2086
     10 C8          6.5673   -0.0362   -0.1786 C.2       1 <0>        -0.1172
     11 C9          7.6222    0.9321   -0.1832 C.1       1 <0>         0.2666
     12 N2          8.4591    1.7003   -0.1868 N.1       1 <0>        -0.4373
     13 C10         6.8874   -1.4798   -0.2467 C.ar      1 <0>        -0.0129
     14 C11         6.5795   -2.3173    0.8263 C.ar      1 <0>        -0.0924
     15 C12         6.8805   -3.6616    0.7566 C.ar      1 <0>        -0.1139
     16 C13         7.4868   -4.1802   -0.3740 C.ar      1 <0>        -0.1023
     17 C14         7.7951   -3.3553   -1.4409 C.ar      1 <0>        -0.1011
     18 C15         7.4931   -2.0100   -1.3863 C.ar      1 <0>        -0.0856
     19 C16         8.4559   -3.9284   -2.6681 C.3       1 <0>         0.1943
     20 C17         7.4035   -4.4877   -3.5904 C.ar      1 <0>        -0.1322
     21 C18         6.8571   -5.7331   -3.3373 C.ar      1 <0>        -0.1084
     22 C19         5.8928   -6.2504   -4.1779 C.ar      1 <0>        -0.1012
     23 C20         5.4692   -5.5149   -5.2846 C.ar      1 <0>         0.0528
     24 C21         6.0239   -4.2599   -5.5345 C.ar      1 <0>        -0.1006
     25 C22         6.9837   -3.7511   -4.6836 C.ar      1 <0>        -0.1058
     26 C23         4.4354   -6.0644   -6.1906 C.2       1 <0>         0.0751
     27 N3          3.9360   -5.4786   -7.2801 N.2       1 <0>        -0.3672
     28 N4          3.0631   -6.2813   -7.7858 N.2       1 <0>        -0.1918
     29 N5          2.9933   -7.3433   -7.0621 N.2       1 <0>        -0.1920
     30 N6          3.8243   -7.2450   -6.0814 N.2       1 <0>        -0.3682
     31 O1          9.3541   -4.9708   -2.2826 O.3       1 <0>        -0.5496
     32 N7          4.9481    1.7170   -0.0470 N.pl3     1 <0>        -0.8345
     33 H1          1.2660    0.0840   -4.9543 H         1 <0>         0.1264
     34 H2          3.3405    1.3053   -4.4497 H         1 <0>         0.1225
     35 H3          4.5188    0.9170   -2.3248 H         1 <0>         0.1203
     36 H4          0.3615   -1.5381   -3.3400 H         1 <0>         0.1279
     37 H5          1.8762   -2.3034   -0.1549 H         1 <0>         0.3976
     38 H6          0.5976   -2.6291   -1.1951 H         1 <0>         0.4035
     39 H7          6.1069   -1.9136    1.7096 H         1 <0>         0.1207
     40 H8          6.6427   -4.3108    1.5864 H         1 <0>         0.1244
     41 H9          7.7208   -5.2334   -0.4236 H         1 <0>         0.1188
     42 H10         7.7298   -1.3679   -2.2218 H         1 <0>         0.1210
     43 H11         9.0098   -3.1432   -3.1826 H         1 <0>         0.1112
     44 H12         7.1861   -6.3018   -2.4801 H         1 <0>         0.1129
     45 H13         5.4672   -7.2230   -3.9794 H         1 <0>         0.1280
     46 H14         5.7002   -3.6859   -6.3902 H         1 <0>         0.1280
     47 H15         7.4108   -2.7775   -4.8736 H         1 <0>         0.1173
     48 H16         8.9288   -5.7048   -1.8184 H         1 <0>         0.3723
     49 H17         4.0347    2.0044    0.1081 H         1 <0>         0.4101
     50 H18         5.6516    2.3756   -0.1575 H         1 <0>         0.4008
@<TRIPOS>BOND
     1    1    6 ar
     2    1    2 ar
     3    1   33 1
     4    2    3 ar
     5    2   34 1
     6    3    4 ar
     7    3   35 1
     8    4    5 ar
     9    4    8 1
    10    5    6 ar
    11    5    7 1
    12    6   36 1
    13    7   37 1
    14    7   38 1
    15    8    9 1
    16    9   10 2
    17    9   32 1
    18   10   11 1
    19   10   13 1
    20   11   12 3
    21   13   18 ar
    22   13   14 ar
    23   14   15 ar
    24   14   39 1
    25   15   16 ar
    26   15   40 1
    27   16   17 ar
    28   16   41 1
    29   17   18 ar
    30   17   19 1
    31   18   42 1
    32   19   20 1
    33   19   31 1
    34   19   43 1
    35   20   25 ar
    36   20   21 ar
    37   21   22 ar
    38   21   44 1
    39   22   23 ar
    40   22   45 1
    41   23   24 ar
    42   23   26 1
    43   24   25 ar
    44   24   46 1
    45   25   47 1
    46   26   27 2
    47   26   30 1
    48   27   28 1
    49   28   29 2
    50   29   30 1
    51   31   48 1
    52   32   49 1
    53   32   50 1
@<TRIPOS>MOLECULE
CHEMBL35029__2
   50    53     0     0     0
SMALL
USER_CHARGES

@<TRIPOS>ATOM
      1 C1          1.0397   -0.3000   -3.1720 C.ar      1 <0>        -0.0659
      2 C2          2.2342    0.3969   -3.1800 C.ar      1 <0>        -0.1606
      3 C3          3.1372    0.2410   -2.1453 C.ar      1 <0>        -0.0725
      4 C4          2.8463   -0.6163   -1.0942 C.ar      1 <0>        -0.1892
      5 C5          1.6411   -1.3190   -1.0858 C.ar      1 <0>         0.2464
      6 C6          0.7413   -1.1566   -2.1287 C.ar      1 <0>        -0.1849
      7 N1          1.3414   -2.1853   -0.0290 N.pl3     1 <0>        -0.8706
      8 S1          3.9957   -0.8176    0.2260 S.3       1 <0>         0.0154
      9 C7          5.2449    0.3787   -0.1102 C.2       1 <0>         0.2070
     10 C8          6.5288   -0.0325   -0.4390 C.2       1 <0>        -0.1065
     11 C9          6.8385   -1.4290   -0.5049 C.1       1 <0>         0.2668
     12 N2          7.0842   -2.5369   -0.5572 N.1       1 <0>        -0.4198
     13 C10         7.5782    0.9725   -0.7215 C.ar      1 <0>        -0.0262
     14 C11         7.4614    1.8157   -1.8274 C.ar      1 <0>        -0.1091
     15 C12         8.4428    2.7501   -2.0853 C.ar      1 <0>        -0.1125
     16 C13         9.5416    2.8522   -1.2503 C.ar      1 <0>        -0.1009
     17 C14         9.6635    2.0191   -0.1526 C.ar      1 <0>        -0.0985
     18 C15         8.6854    1.0847    0.1200 C.ar      1 <0>        -0.0868
     19 C16        10.8637    2.1368    0.7511 C.3       1 <0>         0.1945
     20 C17        12.0350    1.4236    0.1261 C.ar      1 <0>        -0.1368
     21 C18        12.8328    2.0828   -0.7918 C.ar      1 <0>        -0.1096
     22 C19        13.9070    1.4354   -1.3672 C.ar      1 <0>        -0.1011
     23 C20        14.1876    0.1137   -1.0215 C.ar      1 <0>         0.0540
     24 C21        13.3795   -0.5456   -0.0954 C.ar      1 <0>        -0.1012
     25 C22        12.3113    0.1143    0.4770 C.ar      1 <0>        -0.1063
     26 C23        15.3381   -0.5869   -1.6354 C.2       1 <0>         0.0728
     27 N3         15.7249   -1.8422   -1.4028 N.2       1 <0>        -0.3667
     28 N4         16.7637   -2.0688   -2.1318 N.2       1 <0>        -0.1906
     29 N5         17.0450   -1.0121   -2.8105 N.2       1 <0>        -0.1910
     30 N6         16.1886   -0.0888   -2.5344 N.2       1 <0>        -0.3675
     31 O1         11.1885    3.5163    0.9343 O.3       1 <0>        -0.5489
     32 N7          4.9481    1.7170   -0.0470 N.pl3     1 <0>        -0.8279
     33 H1          0.3359   -0.1713   -3.9810 H         1 <0>         0.1259
     34 H2          2.4623    1.0648   -3.9975 H         1 <0>         0.1247
     35 H3          4.0693    0.7864   -2.1552 H         1 <0>         0.1260
     36 H4         -0.1926   -1.6989   -2.1255 H         1 <0>         0.1272
     37 H5          1.9719   -2.2981    0.6995 H         1 <0>         0.3997
     38 H6          0.5030   -2.6732   -0.0247 H         1 <0>         0.4027
     39 H7          6.6047    1.7365   -2.4802 H         1 <0>         0.1228
     40 H8          8.3536    3.4032   -2.9408 H         1 <0>         0.1264
     41 H9         10.3075    3.5852   -1.4566 H         1 <0>         0.1214
     42 H10         8.7793    0.4381    0.9799 H         1 <0>         0.1256
     43 H11        10.6369    1.6855    1.7170 H         1 <0>         0.1134
     44 H12        12.6143    3.1062   -1.0590 H         1 <0>         0.1136
     45 H13        14.5290    1.9509   -2.0840 H         1 <0>         0.1293
     46 H14        13.5916   -1.5692    0.1759 H         1 <0>         0.1295
     47 H15        11.6875   -0.3936    1.1975 H         1 <0>         0.1183
     48 H16        11.4019    3.9824    0.1144 H         1 <0>         0.3726
     49 H17         4.0347    2.0044    0.1081 H         1 <0>         0.4076
     50 H18         5.6516    2.3756   -0.1575 H         1 <0>         0.4081
@<TRIPOS>BOND
     1    1    6 ar
     2    1    2 ar
     3    1   33 1
     4    2    3 ar
     5    2   34 1
     6    3    4 ar
     7    3   35 1
     8    4    5 ar
     9    4    8 1
    10    5    6 ar
    11    5    7 1
    12    6   36 1
    13    7   37 1
    14    7   38 1
    15    8    9 1
    16    9   10 2
    17    9   32 1
    18   10   11 1
    19   10   13 1
    20   11   12 3
    21   13   18 ar
    22   13   14 ar
    23   14   15 ar
    24   14   39 1
    25   15   16 ar
    26   15   40 1
    27   16   17 ar
    28   16   41 1
    29   17   18 ar
    30   17   19 1
    31   18   42 1
    32   19   20 1
    33   19   31 1
    34   19   43 1
    35   20   25 ar
    36   20   21 ar
    37   21   22 ar
    38   21   44 1
    39   22   23 ar
    40   22   45 1
    41   23   24 ar
    42   23   26 1
    43   24   25 ar
    44   24   46 1
    45   25   47 1
    46   26   27 2
    47   26   30 1
    48   27   28 1
    49   28   29 2
    50   29   30 1
    51   31   48 1
    52   32   49 1
    53   32   50 1
@<TRIPOS>MOLECULE
CHEMBL35029__3
   50    53     0     0     0
SMALL
USER_CHARGES

@<TRIPOS>ATOM
      1 C1          1.7816   -0.0928   -4.0219 C.ar      1 <0>        -0.0663
      2 C2          2.9467    0.5957   -3.7371 C.ar      1 <0>        -0.1613
      3 C3          3.6088    0.3781   -2.5435 C.ar      1 <0>        -0.0711
      4 C4          3.1047   -0.5329   -1.6268 C.ar      1 <0>        -0.1911
      5 C5          1.9291   -1.2271   -1.9139 C.ar      1 <0>         0.2469
      6 C6          1.2718   -1.0025   -3.1143 C.ar      1 <0>        -0.1848
      7 N1          1.4151   -2.1472   -0.9939 N.pl3     1 <0>        -0.8705
      8 S1          3.9469   -0.8128   -0.1046 S.3       1 <0>         0.0429
      9 C7          5.2449    0.3787   -0.1102 C.2       1 <0>         0.2000
     10 C8          6.5673   -0.0362   -0.1786 C.2       1 <0>        -0.1050
     11 C9          7.6222    0.9321   -0.1832 C.1       1 <0>         0.2592
     12 N2          8.4591    1.7003   -0.1868 N.1       1 <0>        -0.4258
     13 C10         6.8874   -1.4798   -0.2467 C.ar      1 <0>        -0.0166
     14 C11         6.5795   -2.3173    0.8263 C.ar      1 <0>        -0.0916
     15 C12         6.8805   -3.6616    0.7566 C.ar      1 <0>        -0.1137
     16 C13         7.4868   -4.1802   -0.3740 C.ar      1 <0>        -0.1001
     17 C14         7.7951   -3.3553   -1.4409 C.ar      1 <0>        -0.1009
     18 C15         7.4931   -2.0100   -1.3863 C.ar      1 <0>        -0.0851
     19 C16         8.4559   -3.9284   -2.6681 C.3       1 <0>         0.1953
     20 C17         9.9325   -4.0902   -2.4143 C.ar      1 <0>        -0.1345
     21 C18        10.4037   -5.2335   -1.7942 C.ar      1 <0>        -0.1094
     22 C19        11.7547   -5.3877   -1.5595 C.ar      1 <0>        -0.1009
     23 C20        12.6457   -4.3878   -1.9488 C.ar      1 <0>         0.0524
     24 C21        12.1645   -3.2374   -2.5736 C.ar      1 <0>        -0.1016
     25 C22        10.8119   -3.0973   -2.8075 C.ar      1 <0>        -0.1072
     26 C23        14.0963   -4.5468   -1.6995 C.2       1 <0>         0.0738
     27 N3         15.0599   -3.6798   -2.0146 N.2       1 <0>        -0.3675
     28 N4         16.1801   -4.1896   -1.6308 N.2       1 <0>        -0.1912
     29 N5         15.9615   -5.3366   -1.0896 N.2       1 <0>        -0.1913
     30 N6         14.6961   -5.5824   -1.1105 N.2       1 <0>        -0.3677
     31 O1          7.8816   -5.2022   -2.9674 O.3       1 <0>        -0.5489
     32 N7          4.9481    1.7170   -0.0470 N.pl3     1 <0>        -0.8363
     33 H1          1.2660    0.0840   -4.9543 H         1 <0>         0.1250
     34 H2          3.3405    1.3053   -4.4497 H         1 <0>         0.1228
     35 H3          4.5188    0.9170   -2.3248 H         1 <0>         0.1227
     36 H4          0.3615   -1.5381   -3.3400 H         1 <0>         0.1267
     37 H5          1.8762   -2.3034   -0.1549 H         1 <0>         0.3993
     38 H6          0.5976   -2.6291   -1.1951 H         1 <0>         0.4025
     39 H7          6.1069   -1.9136    1.7096 H         1 <0>         0.1208
     40 H8          6.6427   -4.3108    1.5864 H         1 <0>         0.1249
     41 H9          7.7208   -5.2334   -0.4236 H         1 <0>         0.1193
     42 H10         7.7298   -1.3679   -2.2218 H         1 <0>         0.1212
     43 H11         8.3038   -3.2542   -3.5110 H         1 <0>         0.1117
     44 H12         9.7127   -6.0069   -1.4929 H         1 <0>         0.1141
     45 H13        12.1213   -6.2805   -1.0750 H         1 <0>         0.1291
     46 H14        12.8496   -2.4596   -2.8769 H         1 <0>         0.1287
     47 H15        10.4385   -2.2089   -3.2952 H         1 <0>         0.1175
     48 H16         7.9798   -5.8539   -2.2598 H         1 <0>         0.3722
     49 H17         4.0347    2.0044    0.1081 H         1 <0>         0.4092
     50 H18         5.6516    2.3756   -0.1575 H         1 <0>         0.4020
@<TRIPOS>BOND
     1    1    6 ar
     2    1    2 ar
     3    1   33 1
     4    2    3 ar
     5    2   34 1
     6    3    4 ar
     7    3   35 1
     8    4    5 ar
     9    4    8 1
    10    5    6 ar
    11    5    7 1
    12    6   36 1
    13    7   37 1
    14    7   38 1
    15    8    9 1
    16    9   10 2
    17    9   32 1
    18   10   11 1
    19   10   13 1
    20   11   12 3
    21   13   18 ar
    22   13   14 ar
    23   14   15 ar
    24   14   39 1
    25   15   16 ar
    26   15   40 1
    27   16   17 ar
    28   16   41 1
    29   17   18 ar
    30   17   19 1
    31   18   42 1
    32   19   20 1
    33   19   31 1
    34   19   43 1
    35   20   25 ar
    36   20   21 ar
    37   21   22 ar
    38   21   44 1
    39   22   23 ar
    40   22   45 1
    41   23   24 ar
    42   23   26 1
    43   24   25 ar
    44   24   46 1
    45   25   47 1
    46   26   27 2
    47   26   30 1
    48   27   28 1
    49   28   29 2
    50   29   30 1
    51   31   48 1
    52   32   49 1
    53   32   50 1
@<TRIPOS>MOLECULE
CHEMBL288349
   47    49     0     0     0
SMALL
USER_CHARGES

@<TRIPOS>ATOM
      1 C1          1.0397   -0.3000   -3.1720 C.ar      1 <0>        -0.0631
      2 C2          2.2342    0.3969   -3.1800 C.ar      1 <0>        -0.1610
      3 C3          3.1372    0.2410   -2.1453 C.ar      1 <0>        -0.0730
      4 C4          2.8463   -0.6163   -1.0942 C.ar      1 <0>        -0.1925
      5 C5          1.6411   -1.3190   -1.0858 C.ar      1 <0>         0.2485
      6 C6          0.7413   -1.1566   -2.1287 C.ar      1 <0>        -0.1835
      7 N1          1.3414   -2.1853   -0.0290 N.pl3     1 <0>        -0.8699
      8 S1          3.9957   -0.8176    0.2260 S.3       1 <0>         0.0170
      9 C7          5.2449    0.3787   -0.1102 C.2       1 <0>         0.2166
     10 C8          6.5288   -0.0325   -0.4390 C.2       1 <0>        -0.1218
     11 C9          6.8385   -1.4290   -0.5049 C.1       1 <0>         0.2691
     12 N2          7.0842   -2.5369   -0.5572 N.1       1 <0>        -0.4228
     13 C10         7.5782    0.9725   -0.7215 C.ar      1 <0>        -0.0180
     14 C11         7.4614    1.8157   -1.8274 C.ar      1 <0>        -0.1045
     15 C12         8.4428    2.7501   -2.0853 C.ar      1 <0>        -0.1102
     16 C13         9.5416    2.8522   -1.2503 C.ar      1 <0>        -0.1039
     17 C14         9.6635    2.0191   -0.1526 C.ar      1 <0>        -0.1106
     18 C15         8.6854    1.0847    0.1200 C.ar      1 <0>        -0.0864
     19 C16        10.8637    2.1368    0.7511 C.3       1 <0>         0.1860
     20 C17        10.6169    3.2134    1.7763 C.ar      1 <0>        -0.0821
     21 C18        10.7809    4.5433    1.4314 C.ar      1 <0>        -0.1104
     22 C19        10.5567    5.5339    2.3649 C.ar      1 <0>        -0.0648
     23 C20        10.1629    5.1919    3.6602 C.ar      1 <0>        -0.0256
     24 C21         9.9988    3.8478    4.0012 C.ar      1 <0>        -0.0653
     25 C22        10.2218    2.8677    3.0564 C.ar      1 <0>        -0.1063
     26 C23         9.9288    6.2149    4.6345 C.1       1 <0>         0.2488
     27 N3          9.7431    7.0264    5.4074 N.1       1 <0>        -0.4095
     28 O1         12.0142    2.4742   -0.0265 O.3       1 <0>        -0.5415
     29 N4          4.9481    1.7170   -0.0470 N.pl3     1 <0>        -0.8253
     30 H1          0.3359   -0.1713   -3.9810 H         1 <0>         0.1275
     31 H2          2.4623    1.0648   -3.9975 H         1 <0>         0.1252
     32 H3          4.0693    0.7864   -2.1552 H         1 <0>         0.1242
     33 H4         -0.1926   -1.6989   -2.1255 H         1 <0>         0.1290
     34 H5          1.9719   -2.2981    0.6995 H         1 <0>         0.3994
     35 H6          0.5030   -2.6732   -0.0247 H         1 <0>         0.4042
     36 H7          6.6047    1.7365   -2.4802 H         1 <0>         0.1259
     37 H8          8.3536    3.4032   -2.9408 H         1 <0>         0.1290
     38 H9         10.3075    3.5852   -1.4566 H         1 <0>         0.1216
     39 H10         8.7793    0.4381    0.9799 H         1 <0>         0.1272
     40 H11        11.0328    1.1859    1.2563 H         1 <0>         0.1220
     41 H12        11.0855    4.8064    0.4292 H         1 <0>         0.1307
     42 H13        10.6857    6.5715    2.0946 H         1 <0>         0.1357
     43 H14         9.6945    3.5764    5.0012 H         1 <0>         0.1362
     44 H15        10.0913    1.8279    3.3177 H         1 <0>         0.1368
     45 H16        11.9340    3.3108   -0.5048 H         1 <0>         0.3744
     46 H17         4.0347    2.0044    0.1081 H         1 <0>         0.4101
     47 H18         5.6516    2.3756   -0.1575 H         1 <0>         0.4070
@<TRIPOS>BOND
     1    1    6 ar
     2    1    2 ar
     3    1   30 1
     4    2    3 ar
     5    2   31 1
     6    3    4 ar
     7    3   32 1
     8    4    5 ar
     9    4    8 1
    10    5    6 ar
    11    5    7 1
    12    6   33 1
    13    7   34 1
    14    7   35 1
    15    8    9 1
    16    9   10 2
    17    9   29 1
    18   10   11 1
    19   10   13 1
    20   11   12 3
    21   13   18 ar
    22   13   14 ar
    23   14   15 ar
    24   14   36 1
    25   15   16 ar
    26   15   37 1
    27   16   17 ar
    28   16   38 1
    29   17   18 ar
    30   17   19 1
    31   18   39 1
    32   19   20 1
    33   19   28 1
    34   19   40 1
    35   20   25 ar
    36   20   21 ar
    37   21   22 ar
    38   21   41 1
    39   22   23 ar
    40   22   42 1
    41   23   24 ar
    42   23   26 1
    43   24   25 ar
    44   24   43 1
    45   25   44 1
    46   26   27 3
    47   28   45 1
    48   29   46 1
    49   29   47 1
@<TRIPOS>MOLECULE
CHEMBL288349__1
   47    49     0     0     0
SMALL
USER_CHARGES

@<TRIPOS>ATOM
      1 C1          1.7816   -0.0928   -4.0219 C.ar      1 <0>        -0.0636
      2 C2          2.9467    0.5957   -3.7371 C.ar      1 <0>        -0.1612
      3 C3          3.6088    0.3781   -2.5435 C.ar      1 <0>        -0.0711
      4 C4          3.1047   -0.5329   -1.6268 C.ar      1 <0>        -0.1934
      5 C5          1.9291   -1.2271   -1.9139 C.ar      1 <0>         0.2491
      6 C6          1.2718   -1.0025   -3.1143 C.ar      1 <0>        -0.1837
      7 N1          1.4151   -2.1472   -0.9939 N.pl3     1 <0>        -0.8701
      8 S1          3.9469   -0.8128   -0.1046 S.3       1 <0>         0.0415
      9 C7          5.2449    0.3787   -0.1102 C.2       1 <0>         0.2104
     10 C8          6.5673   -0.0362   -0.1786 C.2       1 <0>        -0.1212
     11 C9          7.6222    0.9321   -0.1832 C.1       1 <0>         0.2610
     12 N2          8.4591    1.7003   -0.1868 N.1       1 <0>        -0.4290
     13 C10         6.8874   -1.4798   -0.2467 C.ar      1 <0>        -0.0075
     14 C11         6.5795   -2.3173    0.8263 C.ar      1 <0>        -0.0869
     15 C12         6.8805   -3.6616    0.7566 C.ar      1 <0>        -0.1115
     16 C13         7.4868   -4.1802   -0.3740 C.ar      1 <0>        -0.1032
     17 C14         7.7951   -3.3553   -1.4409 C.ar      1 <0>        -0.1133
     18 C15         7.4931   -2.0100   -1.3863 C.ar      1 <0>        -0.0848
     19 C16         8.4559   -3.9284   -2.6681 C.3       1 <0>         0.1868
     20 C17         7.4035   -4.4877   -3.5904 C.ar      1 <0>        -0.0796
     21 C18         6.8572   -5.7334   -3.3369 C.ar      1 <0>        -0.1098
     22 C19         5.8935   -6.2514   -4.1770 C.ar      1 <0>        -0.0648
     23 C20         5.4692   -5.5153   -5.2851 C.ar      1 <0>        -0.0269
     24 C21         6.0244   -4.2587   -5.5348 C.ar      1 <0>        -0.0644
     25 C22         6.9839   -3.7507   -4.6837 C.ar      1 <0>        -0.1056
     26 C23         4.4695   -6.0470   -6.1618 C.1       1 <0>         0.2503
     27 N3          3.6765   -6.4688   -6.8573 N.1       1 <0>        -0.4118
     28 O1          9.3541   -4.9708   -2.2826 O.3       1 <0>        -0.5427
     29 N4          4.9481    1.7170   -0.0470 N.pl3     1 <0>        -0.8324
     30 H1          1.2660    0.0840   -4.9543 H         1 <0>         0.1260
     31 H2          3.3405    1.3053   -4.4497 H         1 <0>         0.1233
     32 H3          4.5188    0.9170   -2.3248 H         1 <0>         0.1218
     33 H4          0.3615   -1.5381   -3.3400 H         1 <0>         0.1276
     34 H5          1.8762   -2.3034   -0.1549 H         1 <0>         0.3989
     35 H6          0.5976   -2.6291   -1.1951 H         1 <0>         0.4037
     36 H7          6.1069   -1.9136    1.7096 H         1 <0>         0.1239
     37 H8          6.6427   -4.3108    1.5864 H         1 <0>         0.1274
     38 H9          7.7208   -5.2334   -0.4236 H         1 <0>         0.1194
     39 H10         7.7298   -1.3679   -2.2218 H         1 <0>         0.1227
     40 H11         9.0098   -3.1432   -3.1826 H         1 <0>         0.1201
     41 H12         7.1863   -6.3016   -2.4794 H         1 <0>         0.1305
     42 H13         5.4684   -7.2241   -3.9784 H         1 <0>         0.1348
     43 H14         5.7007   -3.6842   -6.3901 H         1 <0>         0.1349
     44 H15         7.4112   -2.7771   -4.8733 H         1 <0>         0.1354
     45 H16         8.9288   -5.7048   -1.8184 H         1 <0>         0.3743
     46 H17         4.0347    2.0044    0.1081 H         1 <0>         0.4116
     47 H18         5.6516    2.3756   -0.1575 H         1 <0>         0.4030
@<TRIPOS>BOND
     1    1    6 ar
     2    1    2 ar
     3    1   30 1
     4    2    3 ar
     5    2   31 1
     6    3    4 ar
     7    3   32 1
     8    4    5 ar
     9    4    8 1
    10    5    6 ar
    11    5    7 1
    12    6   33 1
    13    7   34 1
    14    7   35 1
    15    8    9 1
    16    9   10 2
    17    9   29 1
    18   10   11 1
    19   10   13 1
    20   11   12 3
    21   13   18 ar
    22   13   14 ar
    23   14   15 ar
    24   14   36 1
    25   15   16 ar
    26   15   37 1
    27   16   17 ar
    28   16   38 1
    29   17   18 ar
    30   17   19 1
    31   18   39 1
    32   19   20 1
    33   19   28 1
    34   19   40 1
    35   20   25 ar
    36   20   21 ar
    37   21   22 ar
    38   21   41 1
    39   22   23 ar
    40   22   42 1
    41   23   24 ar
    42   23   26 1
    43   24   25 ar
    44   24   43 1
    45   25   44 1
    46   26   27 3
    47   28   45 1
    48   29   46 1
    49   29   47 1
@<TRIPOS>MOLECULE
CHEMBL288349__2
   47    49     0     0     0
SMALL
USER_CHARGES

@<TRIPOS>ATOM
      1 C1          1.0397   -0.3000   -3.1720 C.ar      1 <0>        -0.0631
      2 C2          2.2342    0.3969   -3.1800 C.ar      1 <0>        -0.1610
      3 C3          3.1372    0.2410   -2.1453 C.ar      1 <0>        -0.0730
      4 C4          2.8463   -0.6163   -1.0942 C.ar      1 <0>        -0.1924
      5 C5          1.6411   -1.3190   -1.0858 C.ar      1 <0>         0.2485
      6 C6          0.7413   -1.1566   -2.1287 C.ar      1 <0>        -0.1834
      7 N1          1.3414   -2.1853   -0.0290 N.pl3     1 <0>        -0.8698
      8 S1          3.9957   -0.8176    0.2260 S.3       1 <0>         0.0171
      9 C7          5.2449    0.3787   -0.1102 C.2       1 <0>         0.2169
     10 C8          6.5288   -0.0325   -0.4390 C.2       1 <0>        -0.1228
     11 C9          6.8385   -1.4290   -0.5049 C.1       1 <0>         0.2696
     12 N2          7.0842   -2.5369   -0.5572 N.1       1 <0>        -0.4233
     13 C10         7.5782    0.9725   -0.7215 C.ar      1 <0>        -0.0182
     14 C11         7.4614    1.8157   -1.8274 C.ar      1 <0>        -0.1041
     15 C12         8.4428    2.7501   -2.0853 C.ar      1 <0>        -0.1105
     16 C13         9.5416    2.8522   -1.2503 C.ar      1 <0>        -0.1032
     17 C14         9.6635    2.0191   -0.1526 C.ar      1 <0>        -0.1107
     18 C15         8.6854    1.0847    0.1200 C.ar      1 <0>        -0.0861
     19 C16        10.8637    2.1368    0.7511 C.3       1 <0>         0.1869
     20 C17        12.0350    1.4236    0.1261 C.ar      1 <0>        -0.0836
     21 C18        12.8327    2.0833   -0.7920 C.ar      1 <0>        -0.1113
     22 C19        13.9065    1.4365   -1.3679 C.ar      1 <0>        -0.0645
     23 C20        14.1877    0.1133   -1.0221 C.ar      1 <0>        -0.0255
     24 C21        13.3787   -0.5462   -0.0945 C.ar      1 <0>        -0.0647
     25 C22        12.3110    0.1141    0.4773 C.ar      1 <0>        -0.1064
     26 C23        15.3004   -0.5645   -1.6163 C.1       1 <0>         0.2492
     27 N3         16.1831   -1.1022   -2.0877 N.1       1 <0>        -0.4095
     28 O1         11.1885    3.5163    0.9343 O.3       1 <0>        -0.5423
     29 N4          4.9481    1.7170   -0.0470 N.pl3     1 <0>        -0.8251
     30 H1          0.3359   -0.1713   -3.9810 H         1 <0>         0.1275
     31 H2          2.4623    1.0648   -3.9975 H         1 <0>         0.1251
     32 H3          4.0693    0.7864   -2.1552 H         1 <0>         0.1242
     33 H4         -0.1926   -1.6989   -2.1255 H         1 <0>         0.1290
     34 H5          1.9719   -2.2981    0.6995 H         1 <0>         0.3994
     35 H6          0.5030   -2.6732   -0.0247 H         1 <0>         0.4042
     36 H7          6.6047    1.7365   -2.4802 H         1 <0>         0.1259
     37 H8          8.3536    3.4032   -2.9408 H         1 <0>         0.1289
     38 H9         10.3075    3.5852   -1.4566 H         1 <0>         0.1212
     39 H10         8.7793    0.4381    0.9799 H         1 <0>         0.1273
     40 H11        10.6369    1.6855    1.7170 H         1 <0>         0.1223
     41 H12        12.6141    3.1068   -1.0585 H         1 <0>         0.1310
     42 H13        14.5280    1.9524   -2.0849 H         1 <0>         0.1360
     43 H14        13.5906   -1.5697    0.1774 H         1 <0>         0.1363
     44 H15        11.6869   -0.3935    1.1979 H         1 <0>         0.1362
     45 H16        11.4019    3.9824    0.1144 H         1 <0>         0.3745
     46 H17         4.0347    2.0044    0.1081 H         1 <0>         0.4102
     47 H18         5.6516    2.3756   -0.1575 H         1 <0>         0.4073
@<TRIPOS>BOND
     1    1    6 ar
     2    1    2 ar
     3    1   30 1
     4    2    3 ar
     5    2   31 1
     6    3    4 ar
     7    3   32 1
     8    4    5 ar
     9    4    8 1
    10    5    6 ar
    11    5    7 1
    12    6   33 1
    13    7   34 1
    14    7   35 1
    15    8    9 1
    16    9   10 2
    17    9   29 1
    18   10   11 1
    19   10   13 1
    20   11   12 3
    21   13   18 ar
    22   13   14 ar
    23   14   15 ar
    24   14   36 1
    25   15   16 ar
    26   15   37 1
    27   16   17 ar
    28   16   38 1
    29   17   18 ar
    30   17   19 1
    31   18   39 1
    32   19   20 1
    33   19   28 1
    34   19   40 1
    35   20   25 ar
    36   20   21 ar
    37   21   22 ar
    38   21   41 1
    39   22   23 ar
    40   22   42 1
    41   23   24 ar
    42   23   26 1
    43   24   25 ar
    44   24   43 1
    45   25   44 1
    46   26   27 3
    47   28   45 1
    48   29   46 1
    49   29   47 1
@<TRIPOS>MOLECULE
CHEMBL288349__3
   47    49     0     0     0
SMALL
USER_CHARGES

@<TRIPOS>ATOM
      1 C1          1.7816   -0.0928   -4.0219 C.ar      1 <0>        -0.0635
      2 C2          2.9467    0.5957   -3.7371 C.ar      1 <0>        -0.1614
      3 C3          3.6088    0.3781   -2.5435 C.ar      1 <0>        -0.0715
      4 C4          3.1047   -0.5329   -1.6268 C.ar      1 <0>        -0.1941
      5 C5          1.9291   -1.2271   -1.9139 C.ar      1 <0>         0.2487
      6 C6          1.2718   -1.0025   -3.1143 C.ar      1 <0>        -0.1836
      7 N1          1.4151   -2.1472   -0.9939 N.pl3     1 <0>        -0.8700
      8 S1          3.9469   -0.8128   -0.1046 S.3       1 <0>         0.0417
      9 C7          5.2449    0.3787   -0.1102 C.2       1 <0>         0.2107
     10 C8          6.5673   -0.0362   -0.1786 C.2       1 <0>        -0.1220
     11 C9          7.6222    0.9321   -0.1832 C.1       1 <0>         0.2614
     12 N2          8.4591    1.7003   -0.1868 N.1       1 <0>        -0.4295
     13 C10         6.8874   -1.4798   -0.2467 C.ar      1 <0>        -0.0077
     14 C11         6.5795   -2.3173    0.8263 C.ar      1 <0>        -0.0865
     15 C12         6.8805   -3.6616    0.7566 C.ar      1 <0>        -0.1118
     16 C13         7.4868   -4.1802   -0.3740 C.ar      1 <0>        -0.1025
     17 C14         7.7951   -3.3553   -1.4409 C.ar      1 <0>        -0.1134
     18 C15         7.4931   -2.0100   -1.3863 C.ar      1 <0>        -0.0844
     19 C16         8.4559   -3.9284   -2.6681 C.3       1 <0>         0.1876
     20 C17         9.9325   -4.0902   -2.4143 C.ar      1 <0>        -0.0813
     21 C18        10.4034   -5.2338   -1.7941 C.ar      1 <0>        -0.1111
     22 C19        11.7538   -5.3885   -1.5587 C.ar      1 <0>        -0.0643
     23 C20        12.6462   -4.3877   -1.9483 C.ar      1 <0>        -0.0271
     24 C21        12.1641   -3.2363   -2.5742 C.ar      1 <0>        -0.0652
     25 C22        10.8117   -3.0969   -2.8077 C.ar      1 <0>        -0.1072
     26 C23        14.0493   -4.5412   -1.7068 C.1       1 <0>         0.2499
     27 N3         15.1623   -4.6630   -1.5151 N.1       1 <0>        -0.4110
     28 O1          7.8816   -5.2022   -2.9674 O.3       1 <0>        -0.5423
     29 N4          4.9481    1.7170   -0.0470 N.pl3     1 <0>        -0.8322
     30 H1          1.2660    0.0840   -4.9543 H         1 <0>         0.1266
     31 H2          3.3405    1.3053   -4.4497 H         1 <0>         0.1235
     32 H3          4.5188    0.9170   -2.3248 H         1 <0>         0.1216
     33 H4          0.3615   -1.5381   -3.3400 H         1 <0>         0.1284
     34 H5          1.8762   -2.3034   -0.1549 H         1 <0>         0.3990
     35 H6          0.5976   -2.6291   -1.1951 H         1 <0>         0.4038
     36 H7          6.1069   -1.9136    1.7096 H         1 <0>         0.1240
     37 H8          6.6427   -4.3108    1.5864 H         1 <0>         0.1274
     38 H9          7.7208   -5.2334   -0.4236 H         1 <0>         0.1191
     39 H10         7.7298   -1.3679   -2.2218 H         1 <0>         0.1229
     40 H11         8.3038   -3.2542   -3.5110 H         1 <0>         0.1207
     41 H12         9.7120   -6.0071   -1.4933 H         1 <0>         0.1314
     42 H13        12.1199   -6.2814   -1.0739 H         1 <0>         0.1357
     43 H14        12.8489   -2.4584   -2.8781 H         1 <0>         0.1354
     44 H15        10.4379   -2.2087   -3.2954 H         1 <0>         0.1354
     45 H16         7.9798   -5.8539   -2.2598 H         1 <0>         0.3741
     46 H17         4.0347    2.0044    0.1081 H         1 <0>         0.4117
     47 H18         5.6516    2.3756   -0.1575 H         1 <0>         0.4030
@<TRIPOS>BOND
     1    1    6 ar
     2    1    2 ar
     3    1   30 1
     4    2    3 ar
     5    2   31 1
     6    3    4 ar
     7    3   32 1
     8    4    5 ar
     9    4    8 1
    10    5    6 ar
    11    5    7 1
    12    6   33 1
    13    7   34 1
    14    7   35 1
    15    8    9 1
    16    9   10 2
    17    9   29 1
    18   10   11 1
    19   10   13 1
    20   11   12 3
    21   13   18 ar
    22   13   14 ar
    23   14   15 ar
    24   14   36 1
    25   15   16 ar
    26   15   37 1
    27   16   17 ar
    28   16   38 1
    29   17   18 ar
    30   17   19 1
    31   18   39 1
    32   19   20 1
    33   19   28 1
    34   19   40 1
    35   20   25 ar
    36   20   21 ar
    37   21   22 ar
    38   21   41 1
    39   22   23 ar
    40   22   42 1
    41   23   24 ar
    42   23   26 1
    43   24   25 ar
    44   24   43 1
    45   25   44 1
    46   26   27 3
    47   28   45 1
    48   29   46 1
    49   29   47 1
@<TRIPOS>MOLECULE
CHEMBL21156
   39    42     0     0     0
SMALL
USER_CHARGES

@<TRIPOS>ATOM
      1 C1         -0.0187    1.5258    0.0104 C.3       1 <0>        -0.1436
      2 C2          0.0021   -0.0041    0.0020 C.3       1 <0>         0.0140
      3 C3          0.7421   -0.5109    1.2415 C.3       1 <0>        -0.1487
      4 C4         -1.4333   -0.5336    0.0129 C.3       1 <0>        -0.1303
      5 C5          0.7074   -0.4901   -1.2379 C.2       1 <0>         0.2638
      6 N1          0.1210   -0.9968   -2.2839 N.2       1 <0>        -0.4558
      7 C6          1.0486   -1.3263   -3.2084 C.ar      1 <0>         0.0326
      8 C7          0.9566   -1.9189   -4.5414 C.ar      1 <0>         0.1179
      9 C8         -0.2971   -2.2664   -5.1011 C.2       1 <0>        -0.2034
     10 C9         -0.3495   -2.8105   -6.3319 C.2       1 <0>         0.1351
     11 N2          0.7810   -3.0381   -7.0598 N.am      1 <0>        -0.6141
     12 H1          0.7050   -3.4317   -7.9431 H         1 <0>         0.4196
     13 C10         2.0010   -2.7282   -6.5795 C.2       1 <0>         0.5428
     14 O1          2.9965   -2.9413   -7.2504 O.2       1 <0>        -0.5361
     15 C11         2.1202   -2.1528   -5.2909 C.ar      1 <0>        -0.1817
     16 C12         3.4288   -1.8026   -4.7367 C.ar      1 <0>         0.0348
     17 C13         4.6006   -2.0263   -5.4670 C.ar      1 <0>        -0.1436
     18 C14         5.8191   -1.6868   -4.9228 C.ar      1 <0>         0.1070
     19 C15         5.8943   -1.1230   -3.6520 C.ar      1 <0>        -0.1478
     20 C16         4.7656   -0.8960   -2.9212 C.ar      1 <0>        -0.0830
     21 C17         3.5109   -1.2301   -3.4474 C.ar      1 <0>        -0.0389
     22 C18         2.2926   -0.9925   -2.6793 C.ar      1 <0>         0.0700
     23 N3          2.0521   -0.4604   -1.4359 N.pl3     1 <0>        -0.5630
     24 F1          6.9511   -1.9031   -5.6277 F         1 <0>        -0.1342
     25 H2          1.0039    1.9031    0.0027 H         1 <0>         0.0547
     26 H3         -0.5459    1.8868   -0.8726 H         1 <0>         0.0652
     27 H4         -0.5289    1.8773    0.9072 H         1 <0>         0.0732
     28 H5          0.2319   -0.1594    2.1383 H         1 <0>         0.0759
     29 H6          0.7568   -1.6008    1.2356 H         1 <0>         0.0639
     30 H7          1.7647   -0.1336    1.2338 H         1 <0>         0.0535
     31 H8         -1.9605   -0.1726   -0.8702 H         1 <0>         0.0702
     32 H9         -1.4185   -1.6235    0.0069 H         1 <0>         0.0621
     33 H10        -1.9435   -0.1821    0.9097 H         1 <0>         0.0644
     34 H11        -1.2063   -2.0963   -4.5436 H         1 <0>         0.1579
     35 H12        -1.3092   -3.0729   -6.7521 H         1 <0>         0.1707
     36 H13         4.5499   -2.4636   -6.4532 H         1 <0>         0.1816
     37 H14         6.8580   -0.8625   -3.2399 H         1 <0>         0.1394
     38 H15         4.8389   -0.4586   -1.9365 H         1 <0>         0.1298
     39 H16         2.7180   -0.1274   -0.8141 H         1 <0>         0.4242
@<TRIPOS>BOND
     1    1    2 1
     2    1   25 1
     3    1   26 1
     4    1   27 1
     5    2    3 1
     6    2    4 1
     7    2    5 1
     8    3   28 1
     9    3   29 1
    10    3   30 1
    11    4   31 1
    12    4   32 1
    13    4   33 1
    14    5   23 1
    15    5    6 2
    16    6    7 1
    17    7   22 ar
    18    7    8 ar
    19    8   15 ar
    20    8    9 1
    21    9   10 2
    22    9   34 1
    23   10   11 1
    24   10   35 1
    25   11   12 1
    26   11   13 am
    27   13   14 2
    28   13   15 1
    29   15   16 ar
    30   16   21 ar
    31   16   17 ar
    32   17   18 ar
    33   17   36 1
    34   18   19 ar
    35   18   24 1
    36   19   20 ar
    37   19   37 1
    38   20   21 ar
    39   20   38 1
    40   21   22 ar
    41   22   23 1
    42   23   39 1
@<TRIPOS>MOLECULE
CHEMBL21156__1
   39    42     0     0     0
SMALL
USER_CHARGES

@<TRIPOS>ATOM
      1 C1         -0.0187    1.5258    0.0104 C.3       1 <0>        -0.1436
      2 C2          0.0021   -0.0041    0.0020 C.3       1 <0>         0.0104
      3 C3          0.7421   -0.5109    1.2415 C.3       1 <0>        -0.1486
      4 C4         -1.4333   -0.5336    0.0129 C.3       1 <0>        -0.1311
      5 C5          0.7074   -0.4901   -1.2379 C.2       1 <0>         0.2863
      6 N1          2.0441   -0.4649   -1.4310 N.pl3     1 <0>        -0.5600
      7 H1          2.7093   -0.1360   -0.8062 H         1 <0>         0.4237
      8 C6          2.2878   -0.9936   -2.6819 C.ar      1 <0>        -0.0003
      9 C7          3.4710   -1.2184   -3.4171 C.ar      1 <0>         0.0899
     10 C8          4.7383   -0.8766   -2.8768 C.2       1 <0>        -0.2268
     11 C9          5.8528   -1.0998   -3.5966 C.2       1 <0>         0.1433
     12 N2          5.7998   -1.6503   -4.8436 N.am      1 <0>        -0.6162
     13 H2          6.6243   -1.7966   -5.3332 H         1 <0>         0.4202
     14 C10         4.6271   -1.9956   -5.4097 C.2       1 <0>         0.5434
     15 O1          4.6064   -2.4864   -6.5256 O.2       1 <0>        -0.5290
     16 C11         3.4192   -1.7860   -4.7021 C.ar      1 <0>        -0.1636
     17 C12         2.1276   -2.1497   -5.2864 C.ar      1 <0>         0.0206
     18 C13         2.0421   -2.7164   -6.5617 C.ar      1 <0>        -0.1482
     19 C14         0.8085   -3.0461   -7.0782 C.ar      1 <0>         0.1070
     20 C15        -0.3509   -2.8193   -6.3419 C.ar      1 <0>        -0.1527
     21 C16        -0.2900   -2.2668   -5.0954 C.ar      1 <0>        -0.0598
     22 C17         0.9476   -1.9228   -4.5447 C.ar      1 <0>        -0.0255
     23 C18         1.0426   -1.3268   -3.2078 C.ar      1 <0>         0.1105
     24 N3          0.1194   -1.0028   -2.2821 N.2       1 <0>        -0.4755
     25 F1          0.7230   -3.5938   -8.3102 F         1 <0>        -0.1360
     26 H3          1.0039    1.9031    0.0027 H         1 <0>         0.0552
     27 H4         -0.5459    1.8868   -0.8726 H         1 <0>         0.0658
     28 H5         -0.5289    1.8773    0.9072 H         1 <0>         0.0743
     29 H6          0.2319   -0.1594    2.1383 H         1 <0>         0.0768
     30 H7          0.7568   -1.6008    1.2356 H         1 <0>         0.0643
     31 H8          1.7647   -0.1336    1.2338 H         1 <0>         0.0539
     32 H9         -1.9605   -0.1726   -0.8702 H         1 <0>         0.0709
     33 H10        -1.4185   -1.6235    0.0069 H         1 <0>         0.0626
     34 H11        -1.9435   -0.1821    0.9097 H         1 <0>         0.0650
     35 H12         4.8075   -0.4388   -1.8919 H         1 <0>         0.1430
     36 H13         6.8126   -0.8364   -3.1771 H         1 <0>         0.1691
     37 H14         2.9377   -2.8943   -7.1384 H         1 <0>         0.1771
     38 H15        -1.3100   -3.0834   -6.7622 H         1 <0>         0.1394
     39 H16        -1.1973   -2.0959   -4.5350 H         1 <0>         0.1439
@<TRIPOS>BOND
     1    1    2 1
     2    1   26 1
     3    1   27 1
     4    1   28 1
     5    2    3 1
     6    2    4 1
     7    2    5 1
     8    3   29 1
     9    3   30 1
    10    3   31 1
    11    4   32 1
    12    4   33 1
    13    4   34 1
    14    5   24 2
    15    5    6 1
    16    6    7 1
    17    6    8 1
    18    8   23 ar
    19    8    9 ar
    20    9   16 ar
    21    9   10 1
    22   10   11 2
    23   10   35 1
    24   11   12 1
    25   11   36 1
    26   12   13 1
    27   12   14 am
    28   14   15 2
    29   14   16 1
    30   16   17 ar
    31   17   22 ar
    32   17   18 ar
    33   18   19 ar
    34   18   37 1
    35   19   20 ar
    36   19   25 1
    37   20   21 ar
    38   20   38 1
    39   21   22 ar
    40   21   39 1
    41   22   23 ar
    42   23   24 1
@<TRIPOS>MOLECULE
CHEMBL414139
   68    72     0     0     0
SMALL
USER_CHARGES

@<TRIPOS>ATOM
      1 C1         -2.9893    0.6438   -1.8364 C.3       1 <0>         0.0226
      2 O1         -3.1268   -0.7486   -1.5458 O.3       1 <0>        -0.2982
      3 C2         -3.8825   -1.0822   -0.4657 C.ar      1 <0>         0.1257
      4 C3         -4.4707   -0.0997    0.2777 C.ar      1 <0>        -0.1563
      5 C4         -5.2508   -0.4407    1.3923 C.ar      1 <0>        -0.1003
      6 C5         -5.4257   -1.8013    1.7429 C.ar      1 <0>         0.1669
      7 C6         -4.8105   -2.7928    0.9635 C.ar      1 <0>        -0.1780
      8 C7         -4.0551   -2.4319   -0.1291 C.ar      1 <0>         0.1592
      9 O2         -3.4657   -3.3939   -0.8859 O.3       1 <0>        -0.2926
     10 C8         -3.6790   -4.7508   -0.4918 C.3       1 <0>         0.0549
     11 C9         -2.9431   -5.6836   -1.4558 C.3       1 <0>        -0.1159
     12 C10        -3.1715   -7.1364   -1.0338 C.3       1 <0>         0.0586
     13 N1         -2.4649   -8.0320   -1.9593 N.3       1 <0>        -0.5364
     14 C11        -3.0529   -7.9691   -3.3053 C.3       1 <0>         0.0124
     15 C12        -2.2513   -8.8695   -4.2491 C.3       1 <0>         0.0624
     16 O3         -2.2328  -10.2012   -3.7280 O.3       1 <0>        -0.3853
     17 C13        -1.6659  -10.2993   -2.4186 C.3       1 <0>         0.0626
     18 C14        -2.4616   -9.4134   -1.4563 C.3       1 <0>         0.0174
     19 N2         -6.1711   -2.1342    2.8071 N.ar      1 <0>        -0.4635
     20 C15        -6.7574   -1.2327    3.5526 C.ar      1 <0>         0.1794
     21 C16        -6.6387    0.1393    3.2786 C.ar      1 <0>        -0.0915
     22 C17        -5.8720    0.5563    2.1798 C.ar      1 <0>         0.2691
     23 N3         -5.7297    1.8955    1.8769 N.pl3     1 <0>        -0.7077
     24 C18        -6.6323    2.5155    1.0059 C.ar      1 <0>         0.1723
     25 C19        -7.6150    1.7648    0.3735 C.ar      1 <0>        -0.1411
     26 C20        -8.5053    2.3774   -0.4858 C.ar      1 <0>        -0.0987
     27 C21        -8.4185    3.7426   -0.7177 C.ar      1 <0>         0.0831
     28 C22        -7.4371    4.4933   -0.0864 C.ar      1 <0>        -0.1479
     29 C23        -6.5497    3.8831    0.7777 C.ar      1 <0>        -0.1381
     30 O4         -9.2952    4.3450   -1.5644 O.3       1 <0>        -0.2612
     31 C24        -9.1824    5.6862   -1.7514 C.ar      1 <0>         0.0839
     32 C25        -8.3712    6.1811   -2.7625 C.ar      1 <0>        -0.1271
     33 C26        -8.2586    7.5450   -2.9508 C.ar      1 <0>        -0.1065
     34 C27        -8.9530    8.4167   -2.1324 C.ar      1 <0>        -0.1175
     35 C28        -9.7617    7.9261   -1.1237 C.ar      1 <0>        -0.1060
     36 C29        -9.8826    6.5631   -0.9352 C.ar      1 <0>        -0.1266
     37 C30        -7.2931    1.1028    4.1117 C.1       1 <0>         0.2562
     38 N4         -7.8123    1.8672    4.7726 N.1       1 <0>        -0.3967
     39 H1         -2.3637    0.7705   -2.7200 H         1 <0>         0.1066
     40 H2         -3.9729    1.0749   -2.0227 H         1 <0>         0.0594
     41 H3         -2.5264    1.1479   -0.9881 H         1 <0>         0.0581
     42 H4         -4.3355    0.9374    0.0083 H         1 <0>         0.1488
     43 H5         -4.9336   -3.8354    1.2169 H         1 <0>         0.1558
     44 H6         -3.2991   -4.8996    0.5190 H         1 <0>         0.0708
     45 H7         -4.7460   -4.9725   -0.5151 H         1 <0>         0.0685
     46 H8         -3.3230   -5.5348   -2.4665 H         1 <0>         0.0766
     47 H9         -1.8761   -5.4619   -1.4324 H         1 <0>         0.0863
     48 H10        -2.7915   -7.2852   -0.0230 H         1 <0>         0.0816
     49 H11        -4.2384   -7.3581   -1.0571 H         1 <0>         0.0406
     50 H12        -4.0871   -8.3111   -3.2670 H         1 <0>         0.0447
     51 H13        -3.0217   -6.9418   -3.6684 H         1 <0>         0.0905
     52 H14        -2.7175   -8.8706   -5.2343 H         1 <0>         0.0993
     53 H15        -1.2305   -8.4957   -4.3291 H         1 <0>         0.0611
     54 H16        -1.7088  -11.3345   -2.0801 H         1 <0>         0.0996
     55 H17        -0.6281   -9.9671   -2.4455 H         1 <0>         0.0611
     56 H18        -1.9988   -9.4404   -0.4698 H         1 <0>         0.0882
     57 H19        -3.4864   -9.7785   -1.3885 H         1 <0>         0.0448
     58 H20        -7.3473   -1.5518    4.3992 H         1 <0>         0.1731
     59 H21        -5.0039    2.4066    2.2679 H         1 <0>         0.4170
     60 H22        -7.6825    0.7020    0.5537 H         1 <0>         0.1276
     61 H23        -9.2692    1.7937   -0.9779 H         1 <0>         0.1353
     62 H24        -7.3702    5.5559   -0.2674 H         1 <0>         0.1308
     63 H25        -5.7889    4.4684    1.2727 H         1 <0>         0.1283
     64 H26        -7.8280    5.5007   -3.4016 H         1 <0>         0.1308
     65 H27        -7.6274    7.9307   -3.7376 H         1 <0>         0.1309
     66 H28        -8.8633    9.4827   -2.2810 H         1 <0>         0.1288
     67 H29       -10.3024    8.6092   -0.4855 H         1 <0>         0.1309
     68 H30       -10.5181    6.1803   -0.1503 H         1 <0>         0.1307
@<TRIPOS>BOND
     1    1    2 1
     2    1   39 1
     3    1   40 1
     4    1   41 1
     5    2    3 1
     6    3    8 ar
     7    3    4 ar
     8    4    5 ar
     9    4   42 1
    10    5   22 ar
    11    5    6 ar
    12    6    7 ar
    13    6   19 ar
    14    7    8 ar
    15    7   43 1
    16    8    9 1
    17    9   10 1
    18   10   11 1
    19   10   44 1
    20   10   45 1
    21   11   12 1
    22   11   46 1
    23   11   47 1
    24   12   13 1
    25   12   48 1
    26   12   49 1
    27   13   18 1
    28   13   14 1
    29   14   15 1
    30   14   50 1
    31   14   51 1
    32   15   16 1
    33   15   52 1
    34   15   53 1
    35   16   17 1
    36   17   18 1
    37   17   54 1
    38   17   55 1
    39   18   56 1
    40   18   57 1
    41   19   20 ar
    42   20   21 ar
    43   20   58 1
    44   21   22 ar
    45   21   37 1
    46   22   23 1
    47   23   24 1
    48   23   59 1
    49   24   29 ar
    50   24   25 ar
    51   25   26 ar
    52   25   60 1
    53   26   27 ar
    54   26   61 1
    55   27   28 ar
    56   27   30 1
    57   28   29 ar
    58   28   62 1
    59   29   63 1
    60   30   31 1
    61   31   36 ar
    62   31   32 ar
    63   32   33 ar
    64   32   64 1
    65   33   34 ar
    66   33   65 1
    67   34   35 ar
    68   34   66 1
    69   35   36 ar
    70   35   67 1
    71   36   68 1
    72   37   38 3
@<TRIPOS>MOLECULE
CHEMBL414139__1
   69    73     0     0     0
SMALL
USER_CHARGES

@<TRIPOS>ATOM
      1 C1          3.0790    0.7251   -1.6559 C.3       1 <0>         0.0214
      2 O1          2.9177   -0.6644   -1.9480 O.3       1 <0>        -0.3025
      3 C2          2.3651   -0.9827   -3.1490 C.ar      1 <0>         0.1223
      4 C3          2.0000    0.0116   -4.0104 C.ar      1 <0>        -0.1475
      5 C4          1.4298   -0.3136   -5.2498 C.ar      1 <0>        -0.0970
      6 C5          1.2347   -1.6706   -5.6037 C.ar      1 <0>         0.1615
      7 C6          1.6178   -2.6745   -4.7013 C.ar      1 <0>        -0.1702
      8 C7          2.1809   -2.3288   -3.4938 C.ar      1 <0>         0.1489
      9 O2          2.5568   -3.3027   -2.6243 O.3       1 <0>        -0.2943
     10 C8          2.3432   -4.6552   -3.0332 C.3       1 <0>         0.0566
     11 C9          2.8248   -5.6027   -1.9327 C.3       1 <0>        -0.1505
     12 C10         2.5961   -7.0508   -2.3704 C.3       1 <0>        -0.0061
     13 N1          3.0585   -7.9606   -1.3138 N.4       1 <0>        -0.3842
     14 C11         4.5134   -7.8286   -1.1556 C.3       1 <0>        -0.0502
     15 C12         4.9927   -8.7773   -0.0541 C.3       1 <0>         0.0361
     16 O3          4.6202  -10.1167   -0.3904 O.3       1 <0>        -0.3563
     17 C13         3.2131  -10.2909   -0.5786 C.3       1 <0>         0.0355
     18 C14         2.7305   -9.3450   -1.6811 C.3       1 <0>        -0.0434
     19 N2          0.6908   -1.9884   -6.7878 N.ar      1 <0>        -0.4664
     20 C15         0.3241   -1.0751   -7.6502 C.ar      1 <0>         0.1847
     21 C16         0.4807    0.2945   -7.3830 C.ar      1 <0>        -0.0817
     22 C17         1.0428    0.6960   -6.1615 C.ar      1 <0>         0.2721
     23 N3          1.2131    2.0322   -5.8601 N.pl3     1 <0>        -0.7097
     24 C18         2.4087    2.6777   -6.1937 C.ar      1 <0>         0.1672
     25 C19         3.4592    1.9541   -6.7434 C.ar      1 <0>        -0.1419
     26 C20         4.6388    2.5919   -7.0723 C.ar      1 <0>        -0.1007
     27 C21         4.7750    3.9553   -6.8539 C.ar      1 <0>         0.0875
     28 C22         3.7261    4.6789   -6.3049 C.ar      1 <0>        -0.1474
     29 C23         2.5439    4.0436   -5.9807 C.ar      1 <0>        -0.1349
     30 O4          5.9370    4.5825   -7.1777 O.3       1 <0>        -0.2601
     31 C24         6.0217    5.9210   -6.9597 C.ar      1 <0>         0.0804
     32 C25         6.4843    6.3990   -5.7419 C.ar      1 <0>        -0.1271
     33 C26         6.5698    7.7602   -5.5231 C.ar      1 <0>        -0.1064
     34 C27         6.1945    8.6463   -6.5160 C.ar      1 <0>        -0.1153
     35 C28         5.7327    8.1726   -7.7303 C.ar      1 <0>        -0.1050
     36 C29         5.6510    6.8123   -7.9565 C.ar      1 <0>        -0.1259
     37 C30         0.0713    1.2712   -8.3468 C.1       1 <0>         0.2483
     38 N4         -0.2536    2.0461   -9.1114 N.1       1 <0>        -0.3840
     39 H1          3.7252    1.1814   -2.4058 H         1 <0>         0.0619
     40 H2          2.1051    1.2145   -1.6691 H         1 <0>         0.0604
     41 H3          3.5296    0.8392   -0.6700 H         1 <0>         0.1084
     42 H4          2.1495    1.0459   -3.7379 H         1 <0>         0.1518
     43 H5          1.4761   -3.7145   -4.9554 H         1 <0>         0.1531
     44 H6          1.2803   -4.8170   -3.2125 H         1 <0>         0.0789
     45 H7          2.9001   -4.8499   -3.9497 H         1 <0>         0.0788
     46 H8          3.8877   -5.4409   -1.7534 H         1 <0>         0.1005
     47 H9          2.2679   -5.4080   -1.0161 H         1 <0>         0.1012
     48 H10         1.5332   -7.2126   -2.5498 H         1 <0>         0.1384
     49 H11         3.1530   -7.2456   -3.2870 H         1 <0>         0.1363
     50 H12         5.0058   -8.0829   -2.0942 H         1 <0>         0.1409
     51 H13         4.7578   -6.8019   -0.8830 H         1 <0>         0.1448
     52 H14         6.0770   -8.7126    0.0356 H         1 <0>         0.1427
     53 H15         4.5311   -8.4980    0.8931 H         1 <0>         0.0819
     54 H16         3.0095  -11.3217   -0.8685 H         1 <0>         0.1429
     55 H17         2.6906  -10.0635    0.3506 H         1 <0>         0.0818
     56 H18         1.6514   -9.4441   -1.7987 H         1 <0>         0.1441
     57 H19         3.2236   -9.5988   -2.6195 H         1 <0>         0.1404
     58 H20        -0.1093   -1.3821   -8.5905 H         1 <0>         0.1762
     59 H21         0.5038    2.5236   -5.4169 H         1 <0>         0.4184
     60 H22         3.3535    0.8928   -6.9131 H         1 <0>         0.1255
     61 H23         5.4558    2.0293   -7.4994 H         1 <0>         0.1354
     62 H24         3.8329    5.7401   -6.1352 H         1 <0>         0.1327
     63 H25         1.7258    4.6079   -5.5578 H         1 <0>         0.1293
     64 H26         6.7769    5.7074   -4.9658 H         1 <0>         0.1300
     65 H27         6.9298    8.1328   -4.5754 H         1 <0>         0.1316
     66 H28         6.2618    9.7101   -6.3428 H         1 <0>         0.1302
     67 H29         5.4395    8.8668   -8.5039 H         1 <0>         0.1322
     68 H30         5.2948    6.4429   -8.9068 H         1 <0>         0.1310
     69 H31         2.6028   -7.7261   -0.4447 H         1 <0>         0.4245
@<TRIPOS>BOND
     1    1    2 1
     2    1   39 1
     3    1   40 1
     4    1   41 1
     5    2    3 1
     6    3    8 ar
     7    3    4 ar
     8    4    5 ar
     9    4   42 1
    10    5   22 ar
    11    5    6 ar
    12    6    7 ar
    13    6   19 ar
    14    7    8 ar
    15    7   43 1
    16    8    9 1
    17    9   10 1
    18   10   11 1
    19   10   44 1
    20   10   45 1
    21   11   12 1
    22   11   46 1
    23   11   47 1
    24   12   13 1
    25   12   48 1
    26   12   49 1
    27   13   18 1
    28   13   14 1
    29   13   69 1
    30   14   15 1
    31   14   50 1
    32   14   51 1
    33   15   16 1
    34   15   52 1
    35   15   53 1
    36   16   17 1
    37   17   18 1
    38   17   54 1
    39   17   55 1
    40   18   56 1
    41   18   57 1
    42   19   20 ar
    43   20   21 ar
    44   20   58 1
    45   21   22 ar
    46   21   37 1
    47   22   23 1
    48   23   24 1
    49   23   59 1
    50   24   29 ar
    51   24   25 ar
    52   25   26 ar
    53   25   60 1
    54   26   27 ar
    55   26   61 1
    56   27   28 ar
    57   27   30 1
    58   28   29 ar
    59   28   62 1
    60   29   63 1
    61   30   31 1
    62   31   36 ar
    63   31   32 ar
    64   32   33 ar
    65   32   64 1
    66   33   34 ar
    67   33   65 1
    68   34   35 ar
    69   34   66 1
    70   35   36 ar
    71   35   67 1
    72   36   68 1
    73   37   38 3
@<TRIPOS>MOLECULE
CHEMBL202385
   53    56     0     0     0
SMALL
USER_CHARGES

@<TRIPOS>ATOM
      1 C1          1.1217    1.2633    0.6113 C.3       1 <0>        -0.1532
      2 C2          0.9290   -0.2491    0.4827 C.3       1 <0>         0.0628
      3 O1          1.5049   -0.7000   -0.7449 O.3       1 <0>        -0.3505
      4 C3          1.4200   -2.0179   -1.0127 C.2       1 <0>         0.5422
      5 O2          0.8719   -2.7639   -0.2254 O.2       1 <0>        -0.4996
      6 C4          1.9917   -2.5544   -2.2601 C.2       1 <0>        -0.1966
      7 C5          2.6467   -1.8299   -3.2422 C.2       1 <0>         0.1311
      8 N1          3.0230   -2.6699   -4.2240 N.pl3     1 <0>        -0.2480
      9 C6          2.6195   -3.9490   -3.8961 C.2       1 <0>        -0.0696
     10 C7          1.9795   -3.9019   -2.6740 C.2       1 <0>        -0.0031
     11 C8          1.3806   -5.0660   -1.9276 C.3       1 <0>        -0.0977
     12 C9          2.9033   -5.0169   -4.7803 C.2       1 <0>         0.3612
     13 C10         3.5895   -4.7388   -5.9681 C.2       1 <0>        -0.1659
     14 C11         3.9776   -3.4078   -6.2501 C.2       1 <0>         0.2008
     15 N2          3.7076   -2.4397   -5.4249 N.2       1 <0>        -0.2771
     16 C12         3.8962   -5.7916   -6.8890 C.1       1 <0>         0.2613
     17 N3          4.1395   -6.6268   -7.6195 N.1       1 <0>        -0.4009
     18 N4          2.5122   -6.3052   -4.4775 N.pl3     1 <0>        -0.6878
     19 C13         1.1539   -6.6190   -4.3830 C.ar      1 <0>         0.1871
     20 C14         0.1960   -5.6866   -4.7610 C.ar      1 <0>        -0.1627
     21 C15        -1.1456   -6.0002   -4.6667 C.ar      1 <0>        -0.0705
     22 C16        -1.5359   -7.2408   -4.1966 C.ar      1 <0>        -0.1063
     23 C17        -0.5850   -8.1714   -3.8194 C.ar      1 <0>        -0.0709
     24 C18         0.7584   -7.8663   -3.9161 C.ar      1 <0>        -0.1631
     25 C19        -3.0009   -7.5792   -4.0946 C.3       1 <0>        -0.0396
     26 C20        -3.4636   -8.2025   -5.3864 C.ar      1 <0>        -0.0761
     27 C21        -3.9504   -7.4034   -6.4039 C.ar      1 <0>        -0.1152
     28 C22        -4.3748   -7.9751   -7.5888 C.ar      1 <0>        -0.1180
     29 C23        -4.3119   -9.3458   -7.7563 C.ar      1 <0>        -0.1243
     30 C24        -3.8242  -10.1448   -6.7391 C.ar      1 <0>        -0.1180
     31 C25        -3.3958   -9.5727   -5.5559 C.ar      1 <0>        -0.1151
     32 H1          2.1865    1.4960    0.6024 H         1 <0>         0.0672
     33 H2          0.6334    1.7641   -0.2247 H         1 <0>         0.0673
     34 H3          0.6824    1.6072    1.5477 H         1 <0>         0.0806
     35 H4          1.4173   -0.7499    1.3187 H         1 <0>         0.0690
     36 H5         -0.1358   -0.4818    0.4916 H         1 <0>         0.0693
     37 H6          2.8259   -0.7650   -3.2233 H         1 <0>         0.1977
     38 H7          0.3220   -5.1497   -2.1738 H         1 <0>         0.0829
     39 H8          1.8938   -5.9840   -2.2139 H         1 <0>         0.0707
     40 H9          1.4927   -4.9064   -0.8552 H         1 <0>         0.0859
     41 H10         4.5074   -3.1922   -7.1662 H         1 <0>         0.2065
     42 H11         3.1802   -6.9930   -4.3304 H         1 <0>         0.4227
     43 H12         0.5002   -4.7174   -5.1279 H         1 <0>         0.1184
     44 H13        -1.8908   -5.2756   -4.9601 H         1 <0>         0.1244
     45 H14        -0.8933   -9.1393   -3.4527 H         1 <0>         0.1266
     46 H15         1.5006   -8.5950   -3.6253 H         1 <0>         0.1267
     47 H16        -3.1552   -8.2824   -3.2762 H         1 <0>         0.0827
     48 H17        -3.5715   -6.6701   -3.9050 H         1 <0>         0.0821
     49 H18        -3.9996   -6.3325   -6.2730 H         1 <0>         0.1198
     50 H19        -4.7559   -7.3508   -8.3834 H         1 <0>         0.1210
     51 H20        -4.6442   -9.7925   -8.6818 H         1 <0>         0.1205
     52 H21        -3.7754  -11.2157   -6.8699 H         1 <0>         0.1212
     53 H22        -3.0113  -10.1966   -4.7626 H         1 <0>         0.1203
@<TRIPOS>BOND
     1    1    2 1
     2    1   32 1
     3    1   33 1
     4    1   34 1
     5    2    3 1
     6    2   35 1
     7    2   36 1
     8    3    4 1
     9    4    5 2
    10    4    6 1
    11    6   10 1
    12    6    7 2
    13    7    8 1
    14    7   37 1
    15    8   15 1
    16    8    9 1
    17    9   10 2
    18    9   12 1
    19   10   11 1
    20   11   38 1
    21   11   39 1
    22   11   40 1
    23   12   13 2
    24   12   18 1
    25   13   14 1
    26   13   16 1
    27   14   15 2
    28   14   41 1
    29   16   17 3
    30   18   19 1
    31   18   42 1
    32   19   24 ar
    33   19   20 ar
    34   20   21 ar
    35   20   43 1
    36   21   22 ar
    37   21   44 1
    38   22   23 ar
    39   22   25 1
    40   23   24 ar
    41   23   45 1
    42   24   46 1
    43   25   26 1
    44   25   47 1
    45   25   48 1
    46   26   31 ar
    47   26   27 ar
    48   27   28 ar
    49   27   49 1
    50   28   29 ar
    51   28   50 1
    52   29   30 ar
    53   29   51 1
    54   30   31 ar
    55   30   52 1
    56   31   53 1
@<TRIPOS>MOLECULE
CHEMBL80837
   44    46     0     0     0
SMALL
USER_CHARGES

@<TRIPOS>ATOM
      1 C1         -0.1884    1.4667   -0.0440 C.3       1 <0>        -0.1347
      2 C2         -0.1906   -0.0399   -0.0090 C.2       1 <0>         0.0263
      3 C3         -0.3681   -0.8205   -1.2354 C.ar      1 <0>        -0.1283
      4 C4         -0.5403   -0.1892   -2.4727 C.ar      1 <0>        -0.0376
      5 C5         -0.7033   -0.9409   -3.6010 C.ar      1 <0>        -0.0598
      6 C6         -0.6992   -2.3334   -3.5280 C.ar      1 <0>         0.1695
      7 C7         -0.5300   -2.9737   -2.3120 C.ar      1 <0>        -0.1171
      8 C8         -0.3631   -2.2252   -1.1561 C.ar      1 <0>         0.1652
      9 O1         -0.1967   -2.8304    0.0396 O.3       1 <0>        -0.2641
     10 C9         -0.0339   -2.1210    1.1673 C.2       1 <0>         0.5167
     11 O2          0.1134   -2.7102    2.2230 O.2       1 <0>        -0.4466
     12 C10        -0.0224   -0.7108    1.1601 C.2       1 <0>        -0.2011
     13 C11         0.1700    0.0498    2.4467 C.3       1 <0>        -0.0253
     14 C12         1.6430    0.1847    2.7350 C.ar      1 <0>        -0.0846
     15 C13         2.2780   -0.7442    3.5380 C.ar      1 <0>        -0.1045
     16 C14         3.6292   -0.6205    3.8025 C.ar      1 <0>        -0.1190
     17 C15         4.3455    0.4318    3.2636 C.ar      1 <0>        -0.1197
     18 C16         3.7107    1.3602    2.4599 C.ar      1 <0>        -0.1212
     19 C17         2.3604    1.2341    2.1919 C.ar      1 <0>        -0.1176
     20 O3         -0.8629   -3.0677   -4.6589 O.3       1 <0>        -0.2976
     21 C18         0.2286   -3.3396   -5.3998 C.2       1 <0>         0.6486
     22 O4          1.3295   -3.0127   -5.0026 O.2       1 <0>        -0.5447
     23 N1          0.0997   -3.9743   -6.5818 N.am      1 <0>        -0.5948
     24 C19         1.2868   -4.2701   -7.3877 C.3       1 <0>         0.1029
     25 C20        -1.2275   -4.3684   -7.0606 C.3       1 <0>         0.0773
     26 Cl1        -0.9174   -0.1581   -5.1356 Cl        1 <0>        -0.0361
     27 H1          0.8380    1.8270   -0.1127 H         1 <0>         0.0956
     28 H2         -0.7530    1.8108   -0.9105 H         1 <0>         0.0827
     29 H3         -0.6485    1.8520    0.8659 H         1 <0>         0.0923
     30 H4         -0.5446    0.8890   -2.5348 H         1 <0>         0.1607
     31 H5         -0.5284   -4.0526   -2.2637 H         1 <0>         0.1626
     32 H6         -0.2740    1.0408    2.3529 H         1 <0>         0.0948
     33 H7         -0.3121   -0.4886    3.2627 H         1 <0>         0.0948
     34 H8          1.7184   -1.5664    3.9590 H         1 <0>         0.1281
     35 H9          4.1252   -1.3459    4.4304 H         1 <0>         0.1228
     36 H10         5.4010    0.5289    3.4708 H         1 <0>         0.1217
     37 H11         4.2702    2.1826    2.0391 H         1 <0>         0.1223
     38 H12         1.8652    1.9574    1.5610 H         1 <0>         0.1214
     39 H13         1.9627   -4.9082   -6.8184 H         1 <0>         0.0682
     40 H14         0.9870   -4.7824   -8.3018 H         1 <0>         0.0887
     41 H15         1.7941   -3.3395   -7.6424 H         1 <0>         0.0679
     42 H16        -1.6540   -3.5605   -7.6551 H         1 <0>         0.0632
     43 H17        -1.1408   -5.2648   -7.6748 H         1 <0>         0.0803
     44 H18        -1.8753   -4.5733   -6.2083 H         1 <0>         0.0799
@<TRIPOS>BOND
     1    1    2 1
     2    1   27 1
     3    1   28 1
     4    1   29 1
     5    2   12 2
     6    2    3 1
     7    3    8 ar
     8    3    4 ar
     9    4    5 ar
    10    4   30 1
    11    5    6 ar
    12    5   26 1
    13    6    7 ar
    14    6   20 1
    15    7    8 ar
    16    7   31 1
    17    8    9 1
    18    9   10 1
    19   10   11 2
    20   10   12 1
    21   12   13 1
    22   13   14 1
    23   13   32 1
    24   13   33 1
    25   14   19 ar
    26   14   15 ar
    27   15   16 ar
    28   15   34 1
    29   16   17 ar
    30   16   35 1
    31   17   18 ar
    32   17   36 1
    33   18   19 ar
    34   18   37 1
    35   19   38 1
    36   20   21 1
    37   21   22 2
    38   21   23 am
    39   23   24 1
    40   23   25 1
    41   24   39 1
    42   24   40 1
    43   24   41 1
    44   25   42 1
    45   25   43 1
    46   25   44 1
@<TRIPOS>MOLECULE
CHEMBL105642
   69    73     0     0     0
SMALL
USER_CHARGES

@<TRIPOS>ATOM
      1 C1          8.1846   -2.2796    3.1039 C.3       1 <0>         0.0698
      2 N1          6.9617   -1.7129    3.6780 N.pl3     1 <0>        -0.4482
      3 C2          6.7387   -0.3902    3.9864 C.2       1 <0>        -0.0465
      4 C3          5.4942   -0.3089    4.4879 C.2       1 <0>        -0.0191
      5 N2          4.9588   -1.5409    4.4921 N.2       1 <0>        -0.4765
      6 C4          5.8283   -2.3936    4.0023 C.2       1 <0>         0.1749
      7 S1          5.5735   -4.1257    3.8030 S.3       1 <0>         0.0916
      8 C5          3.9958   -4.4113    4.5335 C.ar      1 <0>        -0.1687
      9 C6          2.8859   -4.6288    3.7270 C.ar      1 <0>         0.0009
     10 C7          1.6497   -4.8520    4.2992 C.ar      1 <0>        -0.1838
     11 C8          1.5149   -4.8594    5.6820 C.ar      1 <0>         0.2472
     12 C9          2.6241   -4.6421    6.4893 C.ar      1 <0>        -0.1833
     13 C10         3.8625   -4.4247    5.9173 C.ar      1 <0>         0.0724
     14 Cl1         5.2505   -4.1602    6.9258 Cl        1 <0>        -0.0415
     15 N3          0.2613   -5.0854    6.2615 N.pl3     1 <0>        -0.6974
     16 C11         0.0981   -4.9548    7.6257 C.ar      1 <0>         0.2553
     17 C12         0.3590   -6.0360    8.4993 C.ar      1 <0>        -0.0970
     18 C13         0.7927   -7.2756    8.0060 C.ar      1 <0>        -0.1605
     19 C14         1.0377   -8.3026    8.8711 C.ar      1 <0>         0.1299
     20 C15         0.8599   -8.1310   10.2513 C.ar      1 <0>         0.1592
     21 C16         0.4350   -6.9253   10.7606 C.ar      1 <0>        -0.1768
     22 C17         0.1769   -5.8540    9.8913 C.ar      1 <0>         0.1672
     23 N4         -0.2369   -4.6713   10.3695 N.ar      1 <0>        -0.4600
     24 C18        -0.4856   -3.6542    9.5845 C.ar      1 <0>         0.1789
     25 C19        -0.3266   -3.7432    8.1922 C.ar      1 <0>        -0.0829
     26 C20        -0.6000   -2.6113    7.3589 C.1       1 <0>         0.2509
     27 N5         -0.8169   -1.7133    6.6977 N.1       1 <0>        -0.3889
     28 O1          1.1094   -9.1663   11.0948 O.3       1 <0>        -0.2918
     29 C21         0.9097   -8.9292   12.4897 C.3       1 <0>         0.0543
     30 C22         1.2385  -10.2003   13.2753 C.3       1 <0>        -0.1175
     31 C23         1.0247   -9.9464   14.7689 C.3       1 <0>         0.0631
     32 N6          1.3404  -11.1669   15.5231 N.3       1 <0>        -0.5487
     33 C24         0.4208  -12.2522   15.1742 C.3       1 <0>         0.0510
     34 C25         1.0221  -13.5984   15.5946 C.3       1 <0>        -0.4338
     35 S2          1.2500  -13.5847   17.4000 S.o       1 <0>         1.2355
     36 O2         -0.0190  -13.5302   18.0372 O.2       1 <0>        -0.8513
     37 C26         2.1372  -12.0208   17.6805 C.3       1 <0>        -0.4341
     38 C27         1.3770  -10.8995   16.9627 C.3       1 <0>         0.0585
     39 O3          1.4575   -9.5031    8.3901 O.3       1 <0>        -0.2972
     40 C28         1.6190   -9.6143    6.9746 C.3       1 <0>         0.0220
     41 H1          8.1195   -2.2572    2.0161 H         1 <0>         0.0806
     42 H2          9.0441   -1.6932    3.4286 H         1 <0>         0.0904
     43 H3          8.3000   -3.3101    3.4398 H         1 <0>         0.0891
     44 H4          7.4318    0.4270    3.8514 H         1 <0>         0.1780
     45 H5          5.0080    0.5929    4.8296 H         1 <0>         0.1707
     46 H6          2.9901   -4.6228    2.6521 H         1 <0>         0.1454
     47 H7          0.7869   -5.0207    3.6718 H         1 <0>         0.1387
     48 H8          2.5190   -4.6471    7.5642 H         1 <0>         0.1357
     49 H9         -0.4929   -5.3337    5.7043 H         1 <0>         0.4222
     50 H10         0.9320   -7.4171    6.9444 H         1 <0>         0.1485
     51 H11         0.3005   -6.8038   11.8253 H         1 <0>         0.1563
     52 H12        -0.8168   -2.7224   10.0185 H         1 <0>         0.1746
     53 H13         1.5625   -8.1202   12.8179 H         1 <0>         0.0717
     54 H14        -0.1295   -8.6517   12.6660 H         1 <0>         0.0683
     55 H15         0.5858  -11.0092   12.9472 H         1 <0>         0.0779
     56 H16         2.2778  -10.4778   13.0990 H         1 <0>         0.0887
     57 H17         1.6775   -9.1375   15.0970 H         1 <0>         0.0843
     58 H18        -0.0145   -9.6690   14.9451 H         1 <0>         0.0399
     59 H19        -0.5281  -12.1026   15.6891 H         1 <0>         0.0400
     60 H20         0.2516  -12.2515   14.0974 H         1 <0>         0.0895
     61 H21         0.3452  -14.4060   15.3160 H         1 <0>         0.1120
     62 H22         1.9851  -13.7398   15.1040 H         1 <0>         0.1286
     63 H23         2.1806  -11.8097   18.7489 H         1 <0>         0.1123
     64 H24         3.1479  -12.0949   17.2789 H         1 <0>         0.1285
     65 H25         1.8793   -9.9489   17.1420 H         1 <0>         0.0848
     66 H26         0.3586  -10.8482   17.3477 H         1 <0>         0.0405
     67 H27         0.6655   -9.4193    6.4837 H         1 <0>         0.0582
     68 H28         2.3576   -8.8882    6.6350 H         1 <0>         0.0599
     69 H29         1.9570  -10.6201    6.7253 H         1 <0>         0.1074
@<TRIPOS>BOND
     1    1    2 1
     2    1   41 1
     3    1   42 1
     4    1   43 1
     5    2    6 1
     6    2    3 1
     7    3    4 2
     8    3   44 1
     9    4    5 1
    10    4   45 1
    11    5    6 2
    12    6    7 1
    13    7    8 1
    14    8   13 ar
    15    8    9 ar
    16    9   10 ar
    17    9   46 1
    18   10   11 ar
    19   10   47 1
    20   11   12 ar
    21   11   15 1
    22   12   13 ar
    23   12   48 1
    24   13   14 1
    25   15   16 1
    26   15   49 1
    27   16   25 ar
    28   16   17 ar
    29   17   22 ar
    30   17   18 ar
    31   18   19 ar
    32   18   50 1
    33   19   20 ar
    34   19   39 1
    35   20   21 ar
    36   20   28 1
    37   21   22 ar
    38   21   51 1
    39   22   23 ar
    40   23   24 ar
    41   24   25 ar
    42   24   52 1
    43   25   26 1
    44   26   27 3
    45   28   29 1
    46   29   30 1
    47   29   53 1
    48   29   54 1
    49   30   31 1
    50   30   55 1
    51   30   56 1
    52   31   32 1
    53   31   57 1
    54   31   58 1
    55   32   38 1
    56   32   33 1
    57   33   34 1
    58   33   59 1
    59   33   60 1
    60   34   35 1
    61   34   61 1
    62   34   62 1
    63   35   36 2
    64   35   37 1
    65   37   38 1
    66   37   63 1
    67   37   64 1
    68   38   65 1
    69   38   66 1
    70   39   40 1
    71   40   67 1
    72   40   68 1
    73   40   69 1
@<TRIPOS>MOLECULE
CHEMBL105642__1
   70    74     0     0     0
SMALL
USER_CHARGES

@<TRIPOS>ATOM
      1 C1          5.8654    0.4011    3.3724 C.3       1 <0>         0.0689
      2 N1          4.5862    0.4199    4.0864 N.pl3     1 <0>        -0.4470
      3 C2          3.9809    1.5184    4.6530 C.2       1 <0>        -0.0434
      4 C3          2.8304    1.0925    5.2022 C.2       1 <0>        -0.0194
      5 N2          2.7219   -0.2287    4.9850 N.2       1 <0>        -0.4766
      6 C4          3.7680   -0.6449    4.3101 C.2       1 <0>         0.1727
      7 S1          4.0651   -2.3010    3.7869 S.3       1 <0>         0.0938
      8 C5          2.7389   -3.2172    4.4985 C.ar      1 <0>        -0.1595
      9 C6          1.7023   -3.6762    3.6957 C.ar      1 <0>        -0.0027
     10 C7          0.6630   -4.3936    4.2531 C.ar      1 <0>        -0.1733
     11 C8          0.6532   -4.6568    5.6172 C.ar      1 <0>         0.2360
     12 C9          1.6892   -4.1983    6.4208 C.ar      1 <0>        -0.1772
     13 C10         2.7326   -3.4857    5.8625 C.ar      1 <0>         0.0670
     14 Cl1         4.0313   -2.9185    6.8651 Cl        1 <0>        -0.0411
     15 N3         -0.4010   -5.3837    6.1818 N.pl3     1 <0>        -0.7025
     16 C11        -0.6548   -5.2929    7.5354 C.ar      1 <0>         0.2615
     17 C12        -0.2000   -6.2875    8.4322 C.ar      1 <0>        -0.0959
     18 C13         0.5242   -7.3979    7.9734 C.ar      1 <0>        -0.1523
     19 C14         0.9517   -8.3433    8.8604 C.ar      1 <0>         0.1253
     20 C15         0.6738   -8.2157   10.2287 C.ar      1 <0>         0.1484
     21 C16        -0.0351   -7.1363   10.7042 C.ar      1 <0>        -0.1688
     22 C17        -0.4850   -6.1507    9.8120 C.ar      1 <0>         0.1622
     23 N4         -1.1764   -5.0912   10.2572 N.ar      1 <0>        -0.4647
     24 C18        -1.6091   -4.1563    9.4502 C.ar      1 <0>         0.1854
     25 C19        -1.3675   -4.2077    8.0680 C.ar      1 <0>        -0.0749
     26 C20        -1.8477   -3.1664    7.2102 C.1       1 <0>         0.2421
     27 N5         -2.2287   -2.3403    6.5298 N.1       1 <0>        -0.3751
     28 O1          1.1086   -9.1682   11.0943 O.3       1 <0>        -0.2936
     29 C21         0.7939   -8.9817   12.4757 C.3       1 <0>         0.0559
     30 C22         1.3616  -10.1461   13.2898 C.3       1 <0>        -0.1501
     31 C23         1.0247   -9.9464   14.7689 C.3       1 <0>        -0.0076
     32 N6          1.4537  -11.1259   15.5323 N.4       1 <0>        -0.3864
     33 C24         0.9938  -10.9949   16.9163 C.3       1 <0>        -0.0090
     34 C25         1.0948  -12.3487   17.6290 C.3       1 <0>        -0.4868
     35 S2          2.8448  -12.8483   17.6592 S.o       1 <0>         1.2868
     36 O2          3.5790  -11.9523   18.4822 O.2       1 <0>        -0.8043
     37 C26         3.3509  -12.6317   15.9243 C.3       1 <0>        -0.4858
     38 C27         2.9124  -11.2355   15.4666 C.3       1 <0>        -0.0176
     39 O3          1.6531   -9.4188    8.4128 O.3       1 <0>        -0.3018
     40 C28         1.9033   -9.4912    7.0077 C.3       1 <0>         0.0209
     41 H1          5.6926    0.5875    2.3125 H         1 <0>         0.0819
     42 H2          6.5180    1.1754    3.7758 H         1 <0>         0.0915
     43 H3          6.3372   -0.5734    3.4978 H         1 <0>         0.0888
     44 H4          4.3586    2.5302    4.6561 H         1 <0>         0.1791
     45 H5          2.1154    1.7074    5.7285 H         1 <0>         0.1712
     46 H6          1.7094   -3.4715    2.6353 H         1 <0>         0.1474
     47 H7         -0.1429   -4.7500    3.6287 H         1 <0>         0.1397
     48 H8          1.6810   -4.4024    7.4813 H         1 <0>         0.1339
     49 H9         -0.9533   -5.9514    5.6218 H         1 <0>         0.4230
     50 H10         0.7426   -7.5048    6.9212 H         1 <0>         0.1514
     51 H11        -0.2444   -7.0479   11.7601 H         1 <0>         0.1535
     52 H12        -2.1616   -3.3227    9.8579 H         1 <0>         0.1771
     53 H13         1.2317   -8.0466   12.8251 H         1 <0>         0.0791
     54 H14        -0.2883   -8.9450   12.6001 H         1 <0>         0.0795
     55 H15         0.9238  -11.0812   12.9405 H         1 <0>         0.1026
     56 H16         2.4439  -10.1828   13.1654 H         1 <0>         0.1020
     57 H17         1.5423   -9.0633   15.1434 H         1 <0>         0.1367
     58 H18        -0.0511   -9.8122   14.8815 H         1 <0>         0.1408
     59 H19         1.6138  -10.2647   17.4364 H         1 <0>         0.1321
     60 H20        -0.0429  -10.6584   16.9232 H         1 <0>         0.1426
     61 H21         0.7214  -12.2559   18.6489 H         1 <0>         0.1555
     62 H22         0.5094  -13.0929   17.0890 H         1 <0>         0.1453
     63 H23         4.4341  -12.7216   15.8435 H         1 <0>         0.1553
     64 H24         2.8714  -13.3891   15.3043 H         1 <0>         0.1454
     65 H25         3.2422  -11.0705   14.4409 H         1 <0>         0.1447
     66 H26         3.3617  -10.4839   16.1157 H         1 <0>         0.1327
     67 H27         2.4754   -8.6176    6.6951 H         1 <0>         0.0619
     68 H28         2.4701  -10.3953    6.7857 H         1 <0>         0.1090
     69 H29         0.9551   -9.5157    6.4706 H         1 <0>         0.0608
     70 H30         1.0414  -11.9515   15.1245 H         1 <0>         0.4260
@<TRIPOS>BOND
     1    1    2 1
     2    1   41 1
     3    1   42 1
     4    1   43 1
     5    2    6 1
     6    2    3 1
     7    3    4 2
     8    3   44 1
     9    4    5 1
    10    4   45 1
    11    5    6 2
    12    6    7 1
    13    7    8 1
    14    8   13 ar
    15    8    9 ar
    16    9   10 ar
    17    9   46 1
    18   10   11 ar
    19   10   47 1
    20   11   12 ar
    21   11   15 1
    22   12   13 ar
    23   12   48 1
    24   13   14 1
    25   15   16 1
    26   15   49 1
    27   16   25 ar
    28   16   17 ar
    29   17   22 ar
    30   17   18 ar
    31   18   19 ar
    32   18   50 1
    33   19   20 ar
    34   19   39 1
    35   20   21 ar
    36   20   28 1
    37   21   22 ar
    38   21   51 1
    39   22   23 ar
    40   23   24 ar
    41   24   25 ar
    42   24   52 1
    43   25   26 1
    44   26   27 3
    45   28   29 1
    46   29   30 1
    47   29   53 1
    48   29   54 1
    49   30   31 1
    50   30   55 1
    51   30   56 1
    52   31   32 1
    53   31   57 1
    54   31   58 1
    55   32   38 1
    56   32   33 1
    57   32   70 1
    58   33   34 1
    59   33   59 1
    60   33   60 1
    61   34   35 1
    62   34   61 1
    63   34   62 1
    64   35   36 2
    65   35   37 1
    66   37   38 1
    67   37   63 1
    68   37   64 1
    69   38   65 1
    70   38   66 1
    71   39   40 1
    72   40   67 1
    73   40   68 1
    74   40   69 1
@<TRIPOS>MOLECULE
CHEMBL105442
   39    41     0     0     0
SMALL
USER_CHARGES

@<TRIPOS>ATOM
      1 C1          5.2918    1.7396    3.2436 C.ar      1 <0>        -0.0309
      2 C2          4.7442    2.3265    2.1193 C.ar      1 <0>        -0.1754
      3 C3          4.1477    1.5363    1.1457 C.ar      1 <0>         0.2619
      4 C4          4.1036    0.1559    1.3060 C.ar      1 <0>        -0.0928
      5 C5          4.6532   -0.4248    2.4329 C.ar      1 <0>        -0.0286
      6 C6          5.2467    0.3662    3.4007 C.ar      1 <0>        -0.1419
      7 I1          6.0793   -0.5185    5.1074 I         1 <0>        -0.0345
      8 Cl1         3.3586   -0.8368    0.0922 Cl        1 <0>        -0.0567
      9 N1          3.5922    2.1275    0.0071 N.pl3     1 <0>        -0.6767
     10 C7          3.5183    3.5127   -0.0914 C.ar      1 <0>         0.1964
     11 C8          4.6302    4.2492   -0.5307 C.ar      1 <0>        -0.1138
     12 C9          4.5438    5.6412   -0.6262 C.ar      1 <0>        -0.0633
     13 C10         3.3728    6.2826   -0.2903 C.ar      1 <0>        -0.1221
     14 C11         2.2735    5.5539    0.1440 C.ar      1 <0>         0.1068
     15 C12         2.3418    4.1746    0.2388 C.ar      1 <0>         0.0670
     16 F1          1.2663    3.4723    0.6573 F         1 <0>        -0.1088
     17 F2          1.1298    6.1941    0.4714 F         1 <0>        -0.1136
     18 C13         5.8814    3.5587   -0.8886 C.2       1 <0>         0.5700
     19 O1          5.9222    2.3433   -0.9040 O.2       1 <0>        -0.4837
     20 N2          6.9808    4.2738   -1.1989 N.am      1 <0>        -0.5952
     21 O2          8.1834    3.6101   -1.5429 O.3       1 <0>        -0.1293
     22 C14         9.2665    4.4908   -1.8480 C.3       1 <0>         0.0626
     23 C15        10.5073    3.6692   -2.2034 C.3       1 <0>        -0.1554
     24 C16        11.7246    3.7948   -1.2850 C.3       1 <0>        -0.1728
     25 C17        11.7472    4.4307   -2.6764 C.3       1 <0>        -0.1655
     26 H1          5.7598    2.3537    3.9988 H         1 <0>         0.1352
     27 H2          4.7797    3.3991    1.9979 H         1 <0>         0.1305
     28 H3          4.6195   -1.4969    2.5584 H         1 <0>         0.1411
     29 H4          3.2584    1.5714   -0.7142 H         1 <0>         0.4220
     30 H5          5.3956    6.2134   -0.9630 H         1 <0>         0.1494
     31 H6          3.3090    7.3581   -0.3646 H         1 <0>         0.1621
     32 H7          6.9483    5.2432   -1.1866 H         1 <0>         0.4048
     33 H8          8.9943    5.1221   -2.6939 H         1 <0>         0.0679
     34 H9          9.4810    5.1167   -0.9818 H         1 <0>         0.0652
     35 H10        10.3134    2.6950   -2.6521 H         1 <0>         0.1188
     36 H11        11.6415    4.4627   -0.4277 H         1 <0>         0.0977
     37 H12        12.3317    2.9030   -1.1293 H         1 <0>         0.1007
     38 H13        12.3692    3.9573   -3.4361 H         1 <0>         0.1030
     39 H14        11.6789    5.5170   -2.7345 H         1 <0>         0.0979
@<TRIPOS>BOND
     1    1    6 ar
     2    1    2 ar
     3    1   26 1
     4    2    3 ar
     5    2   27 1
     6    3    4 ar
     7    3    9 1
     8    4    5 ar
     9    4    8 1
    10    5    6 ar
    11    5   28 1
    12    6    7 1
    13    9   10 1
    14    9   29 1
    15   10   15 ar
    16   10   11 ar
    17   11   12 ar
    18   11   18 1
    19   12   13 ar
    20   12   30 1
    21   13   14 ar
    22   13   31 1
    23   14   15 ar
    24   14   17 1
    25   15   16 1
    26   18   19 2
    27   18   20 am
    28   20   21 1
    29   20   32 1
    30   21   22 1
    31   22   23 1
    32   22   33 1
    33   22   34 1
    34   23   25 1
    35   23   24 1
    36   23   35 1
    37   24   25 1
    38   24   36 1
    39   24   37 1
    40   25   38 1
    41   25   39 1
@<TRIPOS>MOLECULE
CHEMBL38216
   43    45     0     0     0
SMALL
USER_CHARGES

@<TRIPOS>ATOM
      1 C1          1.0397   -0.3000   -3.1720 C.ar      1 <0>        -0.0632
      2 C2          2.2342    0.3969   -3.1800 C.ar      1 <0>        -0.1609
      3 C3          3.1372    0.2410   -2.1453 C.ar      1 <0>        -0.0731
      4 C4          2.8463   -0.6163   -1.0942 C.ar      1 <0>        -0.1923
      5 C5          1.6411   -1.3190   -1.0858 C.ar      1 <0>         0.2484
      6 C6          0.7413   -1.1566   -2.1287 C.ar      1 <0>        -0.1835
      7 N1          1.3414   -2.1853   -0.0290 N.pl3     1 <0>        -0.8699
      8 S1          3.9957   -0.8176    0.2260 S.3       1 <0>         0.0175
      9 C7          5.2449    0.3787   -0.1102 C.2       1 <0>         0.2161
     10 C8          6.5288   -0.0325   -0.4390 C.2       1 <0>        -0.1209
     11 C9          6.8385   -1.4290   -0.5049 C.1       1 <0>         0.2694
     12 N2          7.0842   -2.5369   -0.5572 N.1       1 <0>        -0.4227
     13 C10         7.5782    0.9725   -0.7215 C.ar      1 <0>        -0.0203
     14 C11         7.4614    1.8157   -1.8274 C.ar      1 <0>        -0.1019
     15 C12         8.4428    2.7501   -2.0853 C.ar      1 <0>        -0.1117
     16 C13         9.5416    2.8522   -1.2503 C.ar      1 <0>        -0.0978
     17 C14         9.6635    2.0191   -0.1526 C.ar      1 <0>        -0.1181
     18 C15         8.6854    1.0847    0.1200 C.ar      1 <0>        -0.0829
     19 C16        10.8637    2.1368    0.7511 C.3       1 <0>         0.2373
     20 C17        10.6169    3.2134    1.7763 C.2       1 <0>        -0.0458
     21 C18        10.2365    3.0135    3.0509 C.2       1 <0>        -0.1935
     22 C19        10.1233    4.2894    3.6495 C.2       1 <0>        -0.2128
     23 C20        10.4413    5.1926    2.7048 C.2       1 <0>        -0.0350
     24 O1         10.7450    4.5349    1.5739 O.3       1 <0>        -0.1723
     25 O2         12.0142    2.4742   -0.0265 O.3       1 <0>        -0.5415
     26 N3          4.9481    1.7170   -0.0470 N.pl3     1 <0>        -0.8254
     27 H1          0.3359   -0.1713   -3.9810 H         1 <0>         0.1275
     28 H2          2.4623    1.0648   -3.9975 H         1 <0>         0.1252
     29 H3          4.0693    0.7864   -2.1552 H         1 <0>         0.1241
     30 H4         -0.1926   -1.6989   -2.1255 H         1 <0>         0.1290
     31 H5          1.9719   -2.2981    0.6995 H         1 <0>         0.3994
     32 H6          0.5030   -2.6732   -0.0247 H         1 <0>         0.4041
     33 H7          6.6047    1.7365   -2.4802 H         1 <0>         0.1270
     34 H8          8.3536    3.4032   -2.9408 H         1 <0>         0.1299
     35 H9         10.3075    3.5852   -1.4566 H         1 <0>         0.1233
     36 H10         8.7793    0.4381    0.9799 H         1 <0>         0.1279
     37 H11        11.0328    1.1859    1.2563 H         1 <0>         0.1360
     38 H12        10.0523    2.0612    3.5258 H         1 <0>         0.1497
     39 H13         9.8363    4.4986    4.6694 H         1 <0>         0.1503
     40 H14        10.4541    6.2647    2.8348 H         1 <0>         0.2046
     41 H15        11.9340    3.3108   -0.5048 H         1 <0>         0.3816
     42 H16         4.0347    2.0044    0.1081 H         1 <0>         0.4100
     43 H17         5.6516    2.3756   -0.1575 H         1 <0>         0.4070
@<TRIPOS>BOND
     1    1    6 ar
     2    1    2 ar
     3    1   27 1
     4    2    3 ar
     5    2   28 1
     6    3    4 ar
     7    3   29 1
     8    4    5 ar
     9    4    8 1
    10    5    6 ar
    11    5    7 1
    12    6   30 1
    13    7   31 1
    14    7   32 1
    15    8    9 1
    16    9   10 2
    17    9   26 1
    18   10   11 1
    19   10   13 1
    20   11   12 3
    21   13   18 ar
    22   13   14 ar
    23   14   15 ar
    24   14   33 1
    25   15   16 ar
    26   15   34 1
    27   16   17 ar
    28   16   35 1
    29   17   18 ar
    30   17   19 1
    31   18   36 1
    32   19   20 1
    33   19   25 1
    34   19   37 1
    35   20   24 1
    36   20   21 2
    37   21   22 1
    38   21   38 1
    39   22   23 2
    40   22   39 1
    41   23   24 1
    42   23   40 1
    43   25   41 1
    44   26   42 1
    45   26   43 1
@<TRIPOS>MOLECULE
CHEMBL38216__1
   43    45     0     0     0
SMALL
USER_CHARGES

@<TRIPOS>ATOM
      1 C1          1.7816   -0.0928   -4.0219 C.ar      1 <0>        -0.0638
      2 C2          2.9467    0.5957   -3.7371 C.ar      1 <0>        -0.1611
      3 C3          3.6088    0.3781   -2.5435 C.ar      1 <0>        -0.0712
      4 C4          3.1047   -0.5329   -1.6268 C.ar      1 <0>        -0.1931
      5 C5          1.9291   -1.2271   -1.9139 C.ar      1 <0>         0.2486
      6 C6          1.2718   -1.0025   -3.1143 C.ar      1 <0>        -0.1837
      7 N1          1.4151   -2.1472   -0.9939 N.pl3     1 <0>        -0.8702
      8 S1          3.9469   -0.8128   -0.1046 S.3       1 <0>         0.0409
      9 C7          5.2449    0.3787   -0.1102 C.2       1 <0>         0.2101
     10 C8          6.5673   -0.0362   -0.1786 C.2       1 <0>        -0.1200
     11 C9          7.6222    0.9321   -0.1832 C.1       1 <0>         0.2614
     12 N2          8.4591    1.7003   -0.1868 N.1       1 <0>        -0.4288
     13 C10         6.8874   -1.4798   -0.2467 C.ar      1 <0>        -0.0100
     14 C11         6.5795   -2.3173    0.8263 C.ar      1 <0>        -0.0844
     15 C12         6.8805   -3.6616    0.7566 C.ar      1 <0>        -0.1130
     16 C13         7.4868   -4.1802   -0.3740 C.ar      1 <0>        -0.0970
     17 C14         7.7951   -3.3553   -1.4409 C.ar      1 <0>        -0.1208
     18 C15         7.4931   -2.0100   -1.3863 C.ar      1 <0>        -0.0812
     19 C16         8.4559   -3.9284   -2.6681 C.3       1 <0>         0.2381
     20 C17         7.4035   -4.4877   -3.5904 C.2       1 <0>        -0.0430
     21 C18         6.9137   -3.8795   -4.6857 C.2       1 <0>        -0.1935
     22 C19         5.9548   -4.7545   -5.2459 C.2       1 <0>        -0.2112
     23 C20         5.9160   -5.8451   -4.4594 C.2       1 <0>        -0.0362
     24 O1          6.7997   -5.6804   -3.4616 O.3       1 <0>        -0.1718
     25 O2          9.3541   -4.9708   -2.2826 O.3       1 <0>        -0.5427
     26 N3          4.9481    1.7170   -0.0470 N.pl3     1 <0>        -0.8323
     27 H1          1.2660    0.0840   -4.9543 H         1 <0>         0.1263
     28 H2          3.3405    1.3053   -4.4497 H         1 <0>         0.1233
     29 H3          4.5188    0.9170   -2.3248 H         1 <0>         0.1216
     30 H4          0.3615   -1.5381   -3.3400 H         1 <0>         0.1280
     31 H5          1.8762   -2.3034   -0.1549 H         1 <0>         0.3989
     32 H6          0.5976   -2.6291   -1.1951 H         1 <0>         0.4036
     33 H7          6.1069   -1.9136    1.7096 H         1 <0>         0.1250
     34 H8          6.6427   -4.3108    1.5864 H         1 <0>         0.1284
     35 H9          7.7208   -5.2334   -0.4236 H         1 <0>         0.1212
     36 H10         7.7298   -1.3679   -2.2218 H         1 <0>         0.1234
     37 H11         9.0098   -3.1432   -3.1826 H         1 <0>         0.1340
     38 H12         7.1979   -2.9087   -5.0642 H         1 <0>         0.1481
     39 H13         5.3662   -4.5805   -6.1345 H         1 <0>         0.1489
     40 H14         5.2843   -6.7084   -4.6075 H         1 <0>         0.2033
     41 H15         8.9288   -5.7048   -1.8184 H         1 <0>         0.3815
     42 H16         4.0347    2.0044    0.1081 H         1 <0>         0.4115
     43 H17         5.6516    2.3756   -0.1575 H         1 <0>         0.4030
@<TRIPOS>BOND
     1    1    6 ar
     2    1    2 ar
     3    1   27 1
     4    2    3 ar
     5    2   28 1
     6    3    4 ar
     7    3   29 1
     8    4    5 ar
     9    4    8 1
    10    5    6 ar
    11    5    7 1
    12    6   30 1
    13    7   31 1
    14    7   32 1
    15    8    9 1
    16    9   10 2
    17    9   26 1
    18   10   11 1
    19   10   13 1
    20   11   12 3
    21   13   18 ar
    22   13   14 ar
    23   14   15 ar
    24   14   33 1
    25   15   16 ar
    26   15   34 1
    27   16   17 ar
    28   16   35 1
    29   17   18 ar
    30   17   19 1
    31   18   36 1
    32   19   20 1
    33   19   25 1
    34   19   37 1
    35   20   24 1
    36   20   21 2
    37   21   22 1
    38   21   38 1
    39   22   23 2
    40   22   39 1
    41   23   24 1
    42   23   40 1
    43   25   41 1
    44   26   42 1
    45   26   43 1
@<TRIPOS>MOLECULE
CHEMBL38216__2
   43    45     0     0     0
SMALL
USER_CHARGES

@<TRIPOS>ATOM
      1 C1          1.0397   -0.3000   -3.1720 C.ar      1 <0>        -0.0632
      2 C2          2.2342    0.3969   -3.1800 C.ar      1 <0>        -0.1609
      3 C3          3.1372    0.2410   -2.1453 C.ar      1 <0>        -0.0732
      4 C4          2.8463   -0.6163   -1.0942 C.ar      1 <0>        -0.1923
      5 C5          1.6411   -1.3190   -1.0858 C.ar      1 <0>         0.2484
      6 C6          0.7413   -1.1566   -2.1287 C.ar      1 <0>        -0.1834
      7 N1          1.3414   -2.1853   -0.0290 N.pl3     1 <0>        -0.8699
      8 S1          3.9957   -0.8176    0.2260 S.3       1 <0>         0.0175
      9 C7          5.2449    0.3787   -0.1102 C.2       1 <0>         0.2166
     10 C8          6.5288   -0.0325   -0.4390 C.2       1 <0>        -0.1218
     11 C9          6.8385   -1.4290   -0.5049 C.1       1 <0>         0.2696
     12 N2          7.0842   -2.5369   -0.5572 N.1       1 <0>        -0.4233
     13 C10         7.5782    0.9725   -0.7215 C.ar      1 <0>        -0.0202
     14 C11         7.4614    1.8157   -1.8274 C.ar      1 <0>        -0.1016
     15 C12         8.4428    2.7501   -2.0853 C.ar      1 <0>        -0.1118
     16 C13         9.5416    2.8522   -1.2503 C.ar      1 <0>        -0.0979
     17 C14         9.6635    2.0191   -0.1526 C.ar      1 <0>        -0.1179
     18 C15         8.6854    1.0847    0.1200 C.ar      1 <0>        -0.0825
     19 C16        10.8637    2.1368    0.7511 C.3       1 <0>         0.2384
     20 C17        12.0350    1.4236    0.1261 C.2       1 <0>        -0.0479
     21 C18        12.4076    0.1553    0.3748 C.2       1 <0>        -0.1930
     22 C19        13.5474   -0.1005   -0.4216 C.2       1 <0>        -0.2123
     23 C20        13.8031    1.0269   -1.1094 C.2       1 <0>        -0.0349
     24 O1         12.8804    1.9448   -0.7780 O.3       1 <0>        -0.1725
     25 O2         11.1885    3.5163    0.9343 O.3       1 <0>        -0.5419
     26 N3          4.9481    1.7170   -0.0470 N.pl3     1 <0>        -0.8251
     27 H1          0.3359   -0.1713   -3.9810 H         1 <0>         0.1275
     28 H2          2.4623    1.0648   -3.9975 H         1 <0>         0.1251
     29 H3          4.0693    0.7864   -2.1552 H         1 <0>         0.1242
     30 H4         -0.1926   -1.6989   -2.1255 H         1 <0>         0.1290
     31 H5          1.9719   -2.2981    0.6995 H         1 <0>         0.3994
     32 H6          0.5030   -2.6732   -0.0247 H         1 <0>         0.4041
     33 H7          6.6047    1.7365   -2.4802 H         1 <0>         0.1270
     34 H8          8.3536    3.4032   -2.9408 H         1 <0>         0.1298
     35 H9         10.3075    3.5852   -1.4566 H         1 <0>         0.1230
     36 H10         8.7793    0.4381    0.9799 H         1 <0>         0.1282
     37 H11        10.6369    1.6855    1.7170 H         1 <0>         0.1352
     38 H12        11.9284   -0.5350    1.0532 H         1 <0>         0.1492
     39 H13        14.1058   -1.0237   -0.4685 H         1 <0>         0.1505
     40 H14        14.6110    1.1686   -1.8120 H         1 <0>         0.2051
     41 H15        11.4019    3.9824    0.1144 H         1 <0>         0.3817
     42 H16         4.0347    2.0044    0.1081 H         1 <0>         0.4102
     43 H17         5.6516    2.3756   -0.1575 H         1 <0>         0.4074
@<TRIPOS>BOND
     1    1    6 ar
     2    1    2 ar
     3    1   27 1
     4    2    3 ar
     5    2   28 1
     6    3    4 ar
     7    3   29 1
     8    4    5 ar
     9    4    8 1
    10    5    6 ar
    11    5    7 1
    12    6   30 1
    13    7   31 1
    14    7   32 1
    15    8    9 1
    16    9   10 2
    17    9   26 1
    18   10   11 1
    19   10   13 1
    20   11   12 3
    21   13   18 ar
    22   13   14 ar
    23   14   15 ar
    24   14   33 1
    25   15   16 ar
    26   15   34 1
    27   16   17 ar
    28   16   35 1
    29   17   18 ar
    30   17   19 1
    31   18   36 1
    32   19   20 1
    33   19   25 1
    34   19   37 1
    35   20   24 1
    36   20   21 2
    37   21   22 1
    38   21   38 1
    39   22   23 2
    40   22   39 1
    41   23   24 1
    42   23   40 1
    43   25   41 1
    44   26   42 1
    45   26   43 1
@<TRIPOS>MOLECULE
CHEMBL38216__3
   43    45     0     0     0
SMALL
USER_CHARGES

@<TRIPOS>ATOM
      1 C1          1.7816   -0.0928   -4.0219 C.ar      1 <0>        -0.0636
      2 C2          2.9467    0.5957   -3.7371 C.ar      1 <0>        -0.1614
      3 C3          3.6088    0.3781   -2.5435 C.ar      1 <0>        -0.0716
      4 C4          3.1047   -0.5329   -1.6268 C.ar      1 <0>        -0.1940
      5 C5          1.9291   -1.2271   -1.9139 C.ar      1 <0>         0.2487
      6 C6          1.2718   -1.0025   -3.1143 C.ar      1 <0>        -0.1836
      7 N1          1.4151   -2.1472   -0.9939 N.pl3     1 <0>        -0.8700
      8 S1          3.9469   -0.8128   -0.1046 S.3       1 <0>         0.0416
      9 C7          5.2449    0.3787   -0.1102 C.2       1 <0>         0.2106
     10 C8          6.5673   -0.0362   -0.1786 C.2       1 <0>        -0.1209
     11 C9          7.6222    0.9321   -0.1832 C.1       1 <0>         0.2615
     12 N2          8.4591    1.7003   -0.1868 N.1       1 <0>        -0.4295
     13 C10         6.8874   -1.4798   -0.2467 C.ar      1 <0>        -0.0098
     14 C11         6.5795   -2.3173    0.8263 C.ar      1 <0>        -0.0840
     15 C12         6.8805   -3.6616    0.7566 C.ar      1 <0>        -0.1131
     16 C13         7.4868   -4.1802   -0.3740 C.ar      1 <0>        -0.0971
     17 C14         7.7951   -3.3553   -1.4409 C.ar      1 <0>        -0.1205
     18 C15         7.4931   -2.0100   -1.3863 C.ar      1 <0>        -0.0808
     19 C16         8.4559   -3.9284   -2.6681 C.3       1 <0>         0.2390
     20 C17         9.9325   -4.0902   -2.4143 C.2       1 <0>        -0.0446
     21 C18        10.8886   -3.2019   -2.7402 C.2       1 <0>        -0.1955
     22 C19        12.1209   -3.7547   -2.3222 C.2       1 <0>        -0.2127
     23 C20        11.8441   -4.9477   -1.7658 C.2       1 <0>        -0.0360
     24 O1         10.5164   -5.1431   -1.8192 O.3       1 <0>        -0.1719
     25 O2          7.8816   -5.2022   -2.9674 O.3       1 <0>        -0.5419
     26 N3          4.9481    1.7170   -0.0470 N.pl3     1 <0>        -0.8322
     27 H1          1.2660    0.0840   -4.9543 H         1 <0>         0.1267
     28 H2          3.3405    1.3053   -4.4497 H         1 <0>         0.1235
     29 H3          4.5188    0.9170   -2.3248 H         1 <0>         0.1217
     30 H4          0.3615   -1.5381   -3.3400 H         1 <0>         0.1285
     31 H5          1.8762   -2.3034   -0.1549 H         1 <0>         0.3990
     32 H6          0.5976   -2.6291   -1.1951 H         1 <0>         0.4038
     33 H7          6.1069   -1.9136    1.7096 H         1 <0>         0.1250
     34 H8          6.6427   -4.3108    1.5864 H         1 <0>         0.1283
     35 H9          7.7208   -5.2334   -0.4236 H         1 <0>         0.1209
     36 H10         7.7298   -1.3679   -2.2218 H         1 <0>         0.1237
     37 H11         8.3038   -3.2542   -3.5110 H         1 <0>         0.1337
     38 H12        10.7430   -2.2495   -3.2281 H         1 <0>         0.1483
     39 H13        13.0972   -3.3055   -2.4293 H         1 <0>         0.1497
     40 H14        12.5666   -5.6308   -1.3441 H         1 <0>         0.2046
     41 H15         7.9798   -5.8539   -2.2598 H         1 <0>         0.3814
     42 H16         4.0347    2.0044    0.1081 H         1 <0>         0.4116
     43 H17         5.6516    2.3756   -0.1575 H         1 <0>         0.4029
@<TRIPOS>BOND
     1    1    6 ar
     2    1    2 ar
     3    1   27 1
     4    2    3 ar
     5    2   28 1
     6    3    4 ar
     7    3   29 1
     8    4    5 ar
     9    4    8 1
    10    5    6 ar
    11    5    7 1
    12    6   30 1
    13    7   31 1
    14    7   32 1
    15    8    9 1
    16    9   10 2
    17    9   26 1
    18   10   11 1
    19   10   13 1
    20   11   12 3
    21   13   18 ar
    22   13   14 ar
    23   14   15 ar
    24   14   33 1
    25   15   16 ar
    26   15   34 1
    27   16   17 ar
    28   16   35 1
    29   17   18 ar
    30   17   19 1
    31   18   36 1
    32   19   20 1
    33   19   25 1
    34   19   37 1
    35   20   24 1
    36   20   21 2
    37   21   22 1
    38   21   38 1
    39   22   23 2
    40   22   39 1
    41   23   24 1
    42   23   40 1
    43   25   41 1
    44   26   42 1
    45   26   43 1
@<TRIPOS>MOLECULE
CHEMBL290886
   43    45     0     0     0
SMALL
USER_CHARGES

@<TRIPOS>ATOM
      1 C1          1.0397   -0.3000   -3.1720 C.ar      1 <0>        -0.0633
      2 C2          2.2342    0.3969   -3.1800 C.ar      1 <0>        -0.1609
      3 C3          3.1372    0.2410   -2.1453 C.ar      1 <0>        -0.0731
      4 C4          2.8463   -0.6163   -1.0942 C.ar      1 <0>        -0.1922
      5 C5          1.6411   -1.3190   -1.0858 C.ar      1 <0>         0.2483
      6 C6          0.7413   -1.1566   -2.1287 C.ar      1 <0>        -0.1835
      7 N1          1.3414   -2.1853   -0.0290 N.pl3     1 <0>        -0.8699
      8 S1          3.9957   -0.8176    0.2260 S.3       1 <0>         0.0169
      9 C7          5.2449    0.3787   -0.1102 C.2       1 <0>         0.2155
     10 C8          6.5288   -0.0325   -0.4390 C.2       1 <0>        -0.1202
     11 C9          6.8385   -1.4290   -0.5049 C.1       1 <0>         0.2695
     12 N2          7.0842   -2.5369   -0.5572 N.1       1 <0>        -0.4232
     13 C10         7.5782    0.9725   -0.7215 C.ar      1 <0>        -0.0188
     14 C11         7.4614    1.8157   -1.8274 C.ar      1 <0>        -0.1068
     15 C12         8.4428    2.7501   -2.0853 C.ar      1 <0>        -0.1106
     16 C13         9.5416    2.8522   -1.2503 C.ar      1 <0>        -0.1068
     17 C14         9.6635    2.0191   -0.1526 C.ar      1 <0>        -0.1054
     18 C15         8.6854    1.0847    0.1200 C.ar      1 <0>        -0.0862
     19 C16        10.8637    2.1368    0.7511 C.3       1 <0>         0.2184
     20 C17        10.6169    3.2134    1.7763 C.2       1 <0>        -0.2071
     21 C18        10.2173    3.0226    3.1190 C.2       1 <0>        -0.2016
     22 C19        10.1154    4.2442    3.6726 C.2       1 <0>        -0.0362
     23 O1         10.4303    5.1597    2.7417 O.3       1 <0>        -0.1731
     24 C20        10.7402    4.5400    1.5912 C.2       1 <0>        -0.0275
     25 O2         12.0142    2.4742   -0.0265 O.3       1 <0>        -0.5444
     26 N3          4.9481    1.7170   -0.0470 N.pl3     1 <0>        -0.8256
     27 H1          0.3359   -0.1713   -3.9810 H         1 <0>         0.1275
     28 H2          2.4623    1.0648   -3.9975 H         1 <0>         0.1251
     29 H3          4.0693    0.7864   -2.1552 H         1 <0>         0.1242
     30 H4         -0.1926   -1.6989   -2.1255 H         1 <0>         0.1290
     31 H5          1.9719   -2.2981    0.6995 H         1 <0>         0.3994
     32 H6          0.5030   -2.6732   -0.0247 H         1 <0>         0.4041
     33 H7          6.6047    1.7365   -2.4802 H         1 <0>         0.1256
     34 H8          8.3536    3.4032   -2.9408 H         1 <0>         0.1284
     35 H9         10.3075    3.5852   -1.4566 H         1 <0>         0.1202
     36 H10         8.7793    0.4381    0.9799 H         1 <0>         0.1257
     37 H11        11.0328    1.1859    1.2563 H         1 <0>         0.1171
     38 H12        10.0293    2.0773    3.6064 H         1 <0>         0.1502
     39 H13         9.8286    4.4535    4.6926 H         1 <0>         0.2042
     40 H14        11.0358    5.0248    0.6724 H         1 <0>         0.1983
     41 H15        11.9340    3.3108   -0.5048 H         1 <0>         0.3721
     42 H16         4.0347    2.0044    0.1081 H         1 <0>         0.4098
     43 H17         5.6516    2.3756   -0.1575 H         1 <0>         0.4070
@<TRIPOS>BOND
     1    1    6 ar
     2    1    2 ar
     3    1   27 1
     4    2    3 ar
     5    2   28 1
     6    3    4 ar
     7    3   29 1
     8    4    5 ar
     9    4    8 1
    10    5    6 ar
    11    5    7 1
    12    6   30 1
    13    7   31 1
    14    7   32 1
    15    8    9 1
    16    9   10 2
    17    9   26 1
    18   10   11 1
    19   10   13 1
    20   11   12 3
    21   13   18 ar
    22   13   14 ar
    23   14   15 ar
    24   14   33 1
    25   15   16 ar
    26   15   34 1
    27   16   17 ar
    28   16   35 1
    29   17   18 ar
    30   17   19 1
    31   18   36 1
    32   19   20 1
    33   19   25 1
    34   19   37 1
    35   20   24 2
    36   20   21 1
    37   21   22 2
    38   21   38 1
    39   22   23 1
    40   22   39 1
    41   23   24 1
    42   24   40 1
    43   25   41 1
    44   26   42 1
    45   26   43 1
@<TRIPOS>MOLECULE
CHEMBL290886__1
   43    45     0     0     0
SMALL
USER_CHARGES

@<TRIPOS>ATOM
      1 C1          1.7816   -0.0928   -4.0219 C.ar      1 <0>        -0.0641
      2 C2          2.9467    0.5957   -3.7371 C.ar      1 <0>        -0.1614
      3 C3          3.6088    0.3781   -2.5435 C.ar      1 <0>        -0.0712
      4 C4          3.1047   -0.5329   -1.6268 C.ar      1 <0>        -0.1929
      5 C5          1.9291   -1.2271   -1.9139 C.ar      1 <0>         0.2485
      6 C6          1.2718   -1.0025   -3.1143 C.ar      1 <0>        -0.1839
      7 N1          1.4151   -2.1472   -0.9939 N.pl3     1 <0>        -0.8702
      8 S1          3.9469   -0.8128   -0.1046 S.3       1 <0>         0.0416
      9 C7          5.2449    0.3787   -0.1102 C.2       1 <0>         0.2091
     10 C8          6.5673   -0.0362   -0.1786 C.2       1 <0>        -0.1191
     11 C9          7.6222    0.9321   -0.1832 C.1       1 <0>         0.2613
     12 N2          8.4591    1.7003   -0.1868 N.1       1 <0>        -0.4292
     13 C10         6.8874   -1.4798   -0.2467 C.ar      1 <0>        -0.0086
     14 C11         6.5795   -2.3173    0.8263 C.ar      1 <0>        -0.0893
     15 C12         6.8805   -3.6616    0.7566 C.ar      1 <0>        -0.1119
     16 C13         7.4868   -4.1802   -0.3740 C.ar      1 <0>        -0.1060
     17 C14         7.7951   -3.3553   -1.4409 C.ar      1 <0>        -0.1081
     18 C15         7.4931   -2.0100   -1.3863 C.ar      1 <0>        -0.0845
     19 C16         8.4559   -3.9284   -2.6681 C.3       1 <0>         0.2193
     20 C17         7.4035   -4.4877   -3.5904 C.2       1 <0>        -0.2048
     21 C18         6.8772   -3.8638   -4.7449 C.2       1 <0>        -0.2000
     22 C19         5.9688   -4.7088   -5.2646 C.2       1 <0>        -0.0366
     23 O1          5.9173   -5.8052   -4.4906 O.3       1 <0>        -0.1734
     24 C20         6.7889   -5.6788   -3.4766 C.2       1 <0>        -0.0278
     25 O2          9.3541   -4.9708   -2.2826 O.3       1 <0>        -0.5456
     26 N3          4.9481    1.7170   -0.0470 N.pl3     1 <0>        -0.8328
     27 H1          1.2660    0.0840   -4.9543 H         1 <0>         0.1263
     28 H2          3.3405    1.3053   -4.4497 H         1 <0>         0.1232
     29 H3          4.5188    0.9170   -2.3248 H         1 <0>         0.1215
     30 H4          0.3615   -1.5381   -3.3400 H         1 <0>         0.1279
     31 H5          1.8762   -2.3034   -0.1549 H         1 <0>         0.3990
     32 H6          0.5976   -2.6291   -1.1951 H         1 <0>         0.4036
     33 H7          6.1069   -1.9136    1.7096 H         1 <0>         0.1236
     34 H8          6.6427   -4.3108    1.5864 H         1 <0>         0.1269
     35 H9          7.7208   -5.2334   -0.4236 H         1 <0>         0.1180
     36 H10         7.7298   -1.3679   -2.2218 H         1 <0>         0.1212
     37 H11         9.0098   -3.1432   -3.1826 H         1 <0>         0.1150
     38 H12         7.1514   -2.8945   -5.1343 H         1 <0>         0.1487
     39 H13         5.3803   -4.5349   -6.1534 H         1 <0>         0.2028
     40 H14         6.9647   -6.4086   -2.7002 H         1 <0>         0.1977
     41 H15         8.9288   -5.7048   -1.8184 H         1 <0>         0.3721
     42 H16         4.0347    2.0044    0.1081 H         1 <0>         0.4113
     43 H17         5.6516    2.3756   -0.1575 H         1 <0>         0.4029
@<TRIPOS>BOND
     1    1    6 ar
     2    1    2 ar
     3    1   27 1
     4    2    3 ar
     5    2   28 1
     6    3    4 ar
     7    3   29 1
     8    4    5 ar
     9    4    8 1
    10    5    6 ar
    11    5    7 1
    12    6   30 1
    13    7   31 1
    14    7   32 1
    15    8    9 1
    16    9   10 2
    17    9   26 1
    18   10   11 1
    19   10   13 1
    20   11   12 3
    21   13   18 ar
    22   13   14 ar
    23   14   15 ar
    24   14   33 1
    25   15   16 ar
    26   15   34 1
    27   16   17 ar
    28   16   35 1
    29   17   18 ar
    30   17   19 1
    31   18   36 1
    32   19   20 1
    33   19   25 1
    34   19   37 1
    35   20   24 2
    36   20   21 1
    37   21   22 2
    38   21   38 1
    39   22   23 1
    40   22   39 1
    41   23   24 1
    42   24   40 1
    43   25   41 1
    44   26   42 1
    45   26   43 1
@<TRIPOS>MOLECULE
CHEMBL290886__2
   43    45     0     0     0
SMALL
USER_CHARGES

@<TRIPOS>ATOM
      1 C1          1.0397   -0.3000   -3.1720 C.ar      1 <0>        -0.0633
      2 C2          2.2342    0.3969   -3.1800 C.ar      1 <0>        -0.1609
      3 C3          3.1372    0.2410   -2.1453 C.ar      1 <0>        -0.0732
      4 C4          2.8463   -0.6163   -1.0942 C.ar      1 <0>        -0.1921
      5 C5          1.6411   -1.3190   -1.0858 C.ar      1 <0>         0.2483
      6 C6          0.7413   -1.1566   -2.1287 C.ar      1 <0>        -0.1835
      7 N1          1.3414   -2.1853   -0.0290 N.pl3     1 <0>        -0.8699
      8 S1          3.9957   -0.8176    0.2260 S.3       1 <0>         0.0169
      9 C7          5.2449    0.3787   -0.1102 C.2       1 <0>         0.2159
     10 C8          6.5288   -0.0325   -0.4390 C.2       1 <0>        -0.1212
     11 C9          6.8385   -1.4290   -0.5049 C.1       1 <0>         0.2702
     12 N2          7.0842   -2.5369   -0.5572 N.1       1 <0>        -0.4242
     13 C10         7.5782    0.9725   -0.7215 C.ar      1 <0>        -0.0189
     14 C11         7.4614    1.8157   -1.8274 C.ar      1 <0>        -0.1065
     15 C12         8.4428    2.7501   -2.0853 C.ar      1 <0>        -0.1109
     16 C13         9.5416    2.8522   -1.2503 C.ar      1 <0>        -0.1056
     17 C14         9.6635    2.0191   -0.1526 C.ar      1 <0>        -0.1054
     18 C15         8.6854    1.0847    0.1200 C.ar      1 <0>        -0.0863
     19 C16        10.8637    2.1368    0.7511 C.3       1 <0>         0.2193
     20 C17        12.0350    1.4236    0.1261 C.2       1 <0>        -0.2084
     21 C18        12.4413    0.0925    0.3749 C.2       1 <0>        -0.2021
     22 C19        13.5243   -0.1338   -0.3902 C.2       1 <0>        -0.0352
     23 O1         13.7939    0.9833   -1.0851 O.3       1 <0>        -0.1728
     24 C20        12.8910    1.9295   -0.7798 C.2       1 <0>        -0.0282
     25 O2         11.1885    3.5163    0.9343 O.3       1 <0>        -0.5449
     26 N3          4.9481    1.7170   -0.0470 N.pl3     1 <0>        -0.8253
     27 H1          0.3359   -0.1713   -3.9810 H         1 <0>         0.1275
     28 H2          2.4623    1.0648   -3.9975 H         1 <0>         0.1251
     29 H3          4.0693    0.7864   -2.1552 H         1 <0>         0.1242
     30 H4         -0.1926   -1.6989   -2.1255 H         1 <0>         0.1289
     31 H5          1.9719   -2.2981    0.6995 H         1 <0>         0.3994
     32 H6          0.5030   -2.6732   -0.0247 H         1 <0>         0.4041
     33 H7          6.6047    1.7365   -2.4802 H         1 <0>         0.1256
     34 H8          8.3536    3.4032   -2.9408 H         1 <0>         0.1283
     35 H9         10.3075    3.5852   -1.4566 H         1 <0>         0.1195
     36 H10         8.7793    0.4381    0.9799 H         1 <0>         0.1258
     37 H11        10.6369    1.6855    1.7170 H         1 <0>         0.1171
     38 H12        11.9724   -0.6080    1.0500 H         1 <0>         0.1498
     39 H13        14.0825   -1.0572   -0.4373 H         1 <0>         0.2045
     40 H14        12.8591    2.9280   -1.1902 H         1 <0>         0.1984
     41 H15        11.4019    3.9824    0.1144 H         1 <0>         0.3723
     42 H16         4.0347    2.0044    0.1081 H         1 <0>         0.4100
     43 H17         5.6516    2.3756   -0.1575 H         1 <0>         0.4074
@<TRIPOS>BOND
     1    1    6 ar
     2    1    2 ar
     3    1   27 1
     4    2    3 ar
     5    2   28 1
     6    3    4 ar
     7    3   29 1
     8    4    5 ar
     9    4    8 1
    10    5    6 ar
    11    5    7 1
    12    6   30 1
    13    7   31 1
    14    7   32 1
    15    8    9 1
    16    9   10 2
    17    9   26 1
    18   10   11 1
    19   10   13 1
    20   11   12 3
    21   13   18 ar
    22   13   14 ar
    23   14   15 ar
    24   14   33 1
    25   15   16 ar
    26   15   34 1
    27   16   17 ar
    28   16   35 1
    29   17   18 ar
    30   17   19 1
    31   18   36 1
    32   19   20 1
    33   19   25 1
    34   19   37 1
    35   20   24 2
    36   20   21 1
    37   21   22 2
    38   21   38 1
    39   22   23 1
    40   22   39 1
    41   23   24 1
    42   24   40 1
    43   25   41 1
    44   26   42 1
    45   26   43 1
@<TRIPOS>MOLECULE
CHEMBL290886__3
   43    45     0     0     0
SMALL
USER_CHARGES

@<TRIPOS>ATOM
      1 C1          1.7816   -0.0928   -4.0219 C.ar      1 <0>        -0.0638
      2 C2          2.9467    0.5957   -3.7371 C.ar      1 <0>        -0.1614
      3 C3          3.6088    0.3781   -2.5435 C.ar      1 <0>        -0.0717
      4 C4          3.1047   -0.5329   -1.6268 C.ar      1 <0>        -0.1938
      5 C5          1.9291   -1.2271   -1.9139 C.ar      1 <0>         0.2485
      6 C6          1.2718   -1.0025   -3.1143 C.ar      1 <0>        -0.1836
      7 N1          1.4151   -2.1472   -0.9939 N.pl3     1 <0>        -0.8700
      8 S1          3.9469   -0.8128   -0.1046 S.3       1 <0>         0.0419
      9 C7          5.2449    0.3787   -0.1102 C.2       1 <0>         0.2097
     10 C8          6.5673   -0.0362   -0.1786 C.2       1 <0>        -0.1202
     11 C9          7.6222    0.9321   -0.1832 C.1       1 <0>         0.2620
     12 N2          8.4591    1.7003   -0.1868 N.1       1 <0>        -0.4303
     13 C10         6.8874   -1.4798   -0.2467 C.ar      1 <0>        -0.0086
     14 C11         6.5795   -2.3173    0.8263 C.ar      1 <0>        -0.0889
     15 C12         6.8805   -3.6616    0.7566 C.ar      1 <0>        -0.1122
     16 C13         7.4868   -4.1802   -0.3740 C.ar      1 <0>        -0.1048
     17 C14         7.7951   -3.3553   -1.4409 C.ar      1 <0>        -0.1080
     18 C15         7.4931   -2.0100   -1.3863 C.ar      1 <0>        -0.0845
     19 C16         8.4559   -3.9284   -2.6681 C.3       1 <0>         0.2202
     20 C17         9.9325   -4.0902   -2.4143 C.2       1 <0>        -0.2067
     21 C18        10.9509   -3.1684   -2.7492 C.2       1 <0>        -0.2021
     22 C19        12.1143   -3.7090   -2.3445 C.2       1 <0>        -0.0365
     23 O1         11.8559   -4.9025   -1.7854 O.3       1 <0>        -0.1734
     24 C20        10.5339   -5.1366   -1.8204 C.2       1 <0>        -0.0287
     25 O2          7.8816   -5.2022   -2.9674 O.3       1 <0>        -0.5449
     26 N3          4.9481    1.7170   -0.0470 N.pl3     1 <0>        -0.8326
     27 H1          1.2660    0.0840   -4.9543 H         1 <0>         0.1266
     28 H2          3.3405    1.3053   -4.4497 H         1 <0>         0.1234
     29 H3          4.5188    0.9170   -2.3248 H         1 <0>         0.1216
     30 H4          0.3615   -1.5381   -3.3400 H         1 <0>         0.1284
     31 H5          1.8762   -2.3034   -0.1549 H         1 <0>         0.3990
     32 H6          0.5976   -2.6291   -1.1951 H         1 <0>         0.4037
     33 H7          6.1069   -1.9136    1.7096 H         1 <0>         0.1236
     34 H8          6.6427   -4.3108    1.5864 H         1 <0>         0.1268
     35 H9          7.7208   -5.2334   -0.4236 H         1 <0>         0.1174
     36 H10         7.7298   -1.3679   -2.2218 H         1 <0>         0.1213
     37 H11         8.3038   -3.2542   -3.5110 H         1 <0>         0.1154
     38 H12        10.8200   -2.2138   -3.2370 H         1 <0>         0.1489
     39 H13        13.0905   -3.2597   -2.4514 H         1 <0>         0.2037
     40 H14        10.0380   -6.0168   -1.4387 H         1 <0>         0.1986
     41 H15         7.9798   -5.8539   -2.2598 H         1 <0>         0.3719
     42 H16         4.0347    2.0044    0.1081 H         1 <0>         0.4115
     43 H17         5.6516    2.3756   -0.1575 H         1 <0>         0.4028
@<TRIPOS>BOND
     1    1    6 ar
     2    1    2 ar
     3    1   27 1
     4    2    3 ar
     5    2   28 1
     6    3    4 ar
     7    3   29 1
     8    4    5 ar
     9    4    8 1
    10    5    6 ar
    11    5    7 1
    12    6   30 1
    13    7   31 1
    14    7   32 1
    15    8    9 1
    16    9   10 2
    17    9   26 1
    18   10   11 1
    19   10   13 1
    20   11   12 3
    21   13   18 ar
    22   13   14 ar
    23   14   15 ar
    24   14   33 1
    25   15   16 ar
    26   15   34 1
    27   16   17 ar
    28   16   35 1
    29   17   18 ar
    30   17   19 1
    31   18   36 1
    32   19   20 1
    33   19   25 1
    34   19   37 1
    35   20   24 2
    36   20   21 1
    37   21   22 2
    38   21   38 1
    39   22   23 1
    40   22   39 1
    41   23   24 1
    42   24   40 1
    43   25   41 1
    44   26   42 1
    45   26   43 1
@<TRIPOS>MOLECULE
CHEMBL38195
   43    45     0     0     0
SMALL
USER_CHARGES

@<TRIPOS>ATOM
      1 C1          1.0397   -0.3000   -3.1720 C.ar      1 <0>        -0.0633
      2 C2          2.2342    0.3969   -3.1800 C.ar      1 <0>        -0.1609
      3 C3          3.1372    0.2410   -2.1453 C.ar      1 <0>        -0.0731
      4 C4          2.8463   -0.6163   -1.0942 C.ar      1 <0>        -0.1921
      5 C5          1.6411   -1.3190   -1.0858 C.ar      1 <0>         0.2483
      6 C6          0.7413   -1.1566   -2.1287 C.ar      1 <0>        -0.1835
      7 N1          1.3414   -2.1853   -0.0290 N.pl3     1 <0>        -0.8699
      8 S1          3.9957   -0.8176    0.2260 S.3       1 <0>         0.0168
      9 C7          5.2449    0.3787   -0.1102 C.2       1 <0>         0.2156
     10 C8          6.5288   -0.0325   -0.4390 C.2       1 <0>        -0.1203
     11 C9          6.8385   -1.4290   -0.5049 C.1       1 <0>         0.2695
     12 N2          7.0842   -2.5369   -0.5572 N.1       1 <0>        -0.4233
     13 C10         7.5782    0.9725   -0.7215 C.ar      1 <0>        -0.0187
     14 C11         7.4614    1.8157   -1.8274 C.ar      1 <0>        -0.1065
     15 C12         8.4428    2.7501   -2.0853 C.ar      1 <0>        -0.1105
     16 C13         9.5416    2.8522   -1.2503 C.ar      1 <0>        -0.1049
     17 C14         9.6635    2.0191   -0.1526 C.ar      1 <0>        -0.1050
     18 C15         8.6854    1.0847    0.1200 C.ar      1 <0>        -0.0870
     19 C16        10.8637    2.1368    0.7511 C.3       1 <0>         0.2038
     20 C17        10.6169    3.2134    1.7763 C.2       1 <0>        -0.1456
     21 C18        10.2268    2.8829    3.0605 C.2       1 <0>        -0.1497
     22 C19        10.0130    3.8755    3.9585 C.2       1 <0>        -0.1679
     23 S2         10.3655    5.3327    2.9892 S.3       1 <0>         0.0473
     24 C20        10.7795    4.5200    1.4544 C.2       1 <0>        -0.1689
     25 O1         12.0142    2.4742   -0.0265 O.3       1 <0>        -0.5435
     26 N3          4.9481    1.7170   -0.0470 N.pl3     1 <0>        -0.8255
     27 H1          0.3359   -0.1713   -3.9810 H         1 <0>         0.1275
     28 H2          2.4623    1.0648   -3.9975 H         1 <0>         0.1251
     29 H3          4.0693    0.7864   -2.1552 H         1 <0>         0.1242
     30 H4         -0.1926   -1.6989   -2.1255 H         1 <0>         0.1289
     31 H5          1.9719   -2.2981    0.6995 H         1 <0>         0.3994
     32 H6          0.5030   -2.6732   -0.0247 H         1 <0>         0.4041
     33 H7          6.6047    1.7365   -2.4802 H         1 <0>         0.1256
     34 H8          8.3536    3.4032   -2.9408 H         1 <0>         0.1284
     35 H9         10.3075    3.5852   -1.4566 H         1 <0>         0.1200
     36 H10         8.7793    0.4381    0.9799 H         1 <0>         0.1253
     37 H11        11.0328    1.1859    1.2563 H         1 <0>         0.1158
     38 H12        10.0941    1.8493    3.3441 H         1 <0>         0.1356
     39 H13         9.7081    3.8035    4.9921 H         1 <0>         0.1875
     40 H14        11.0803    4.9563    0.5134 H         1 <0>         0.1826
     41 H15        11.9340    3.3108   -0.5048 H         1 <0>         0.3722
     42 H16         4.0347    2.0044    0.1081 H         1 <0>         0.4098
     43 H17         5.6516    2.3756   -0.1575 H         1 <0>         0.4071
@<TRIPOS>BOND
     1    1    6 ar
     2    1    2 ar
     3    1   27 1
     4    2    3 ar
     5    2   28 1
     6    3    4 ar
     7    3   29 1
     8    4    5 ar
     9    4    8 1
    10    5    6 ar
    11    5    7 1
    12    6   30 1
    13    7   31 1
    14    7   32 1
    15    8    9 1
    16    9   10 2
    17    9   26 1
    18   10   11 1
    19   10   13 1
    20   11   12 3
    21   13   18 ar
    22   13   14 ar
    23   14   15 ar
    24   14   33 1
    25   15   16 ar
    26   15   34 1
    27   16   17 ar
    28   16   35 1
    29   17   18 ar
    30   17   19 1
    31   18   36 1
    32   19   20 1
    33   19   25 1
    34   19   37 1
    35   20   24 2
    36   20   21 1
    37   21   22 2
    38   21   38 1
    39   22   23 1
    40   22   39 1
    41   23   24 1
    42   24   40 1
    43   25   41 1
    44   26   42 1
    45   26   43 1
@<TRIPOS>MOLECULE
CHEMBL38195__1
   43    45     0     0     0
SMALL
USER_CHARGES

@<TRIPOS>ATOM
      1 C1          1.7816   -0.0928   -4.0219 C.ar      1 <0>        -0.0640
      2 C2          2.9467    0.5957   -3.7371 C.ar      1 <0>        -0.1614
      3 C3          3.6088    0.3781   -2.5435 C.ar      1 <0>        -0.0712
      4 C4          3.1047   -0.5329   -1.6268 C.ar      1 <0>        -0.1929
      5 C5          1.9291   -1.2271   -1.9139 C.ar      1 <0>         0.2489
      6 C6          1.2718   -1.0025   -3.1143 C.ar      1 <0>        -0.1837
      7 N1          1.4151   -2.1472   -0.9939 N.pl3     1 <0>        -0.8700
      8 S1          3.9469   -0.8128   -0.1046 S.3       1 <0>         0.0416
      9 C7          5.2449    0.3787   -0.1102 C.2       1 <0>         0.2092
     10 C8          6.5673   -0.0362   -0.1786 C.2       1 <0>        -0.1194
     11 C9          7.6222    0.9321   -0.1832 C.1       1 <0>         0.2613
     12 N2          8.4591    1.7003   -0.1868 N.1       1 <0>        -0.4293
     13 C10         6.8874   -1.4798   -0.2467 C.ar      1 <0>        -0.0084
     14 C11         6.5795   -2.3173    0.8263 C.ar      1 <0>        -0.0890
     15 C12         6.8805   -3.6616    0.7566 C.ar      1 <0>        -0.1118
     16 C13         7.4868   -4.1802   -0.3740 C.ar      1 <0>        -0.1041
     17 C14         7.7951   -3.3553   -1.4409 C.ar      1 <0>        -0.1077
     18 C15         7.4931   -2.0100   -1.3863 C.ar      1 <0>        -0.0853
     19 C16         8.4559   -3.9284   -2.6681 C.3       1 <0>         0.2047
     20 C17         7.4035   -4.4877   -3.5904 C.2       1 <0>        -0.1435
     21 C18         6.9782   -3.7652   -4.6894 C.2       1 <0>        -0.1478
     22 C19         6.0300   -4.2970   -5.4989 C.2       1 <0>        -0.1676
     23 S2          5.7087   -5.8660   -4.7100 S.3       1 <0>         0.0447
     24 C20         6.8638   -5.7092   -3.3579 C.2       1 <0>        -0.1682
     25 O1          9.3541   -4.9708   -2.2826 O.3       1 <0>        -0.5447
     26 N3          4.9481    1.7170   -0.0470 N.pl3     1 <0>        -0.8328
     27 H1          1.2660    0.0840   -4.9543 H         1 <0>         0.1261
     28 H2          3.3405    1.3053   -4.4497 H         1 <0>         0.1230
     29 H3          4.5188    0.9170   -2.3248 H         1 <0>         0.1213
     30 H4          0.3615   -1.5381   -3.3400 H         1 <0>         0.1280
     31 H5          1.8762   -2.3034   -0.1549 H         1 <0>         0.3989
     32 H6          0.5976   -2.6291   -1.1951 H         1 <0>         0.4036
     33 H7          6.1069   -1.9136    1.7096 H         1 <0>         0.1235
     34 H8          6.6427   -4.3108    1.5864 H         1 <0>         0.1268
     35 H9          7.7208   -5.2334   -0.4236 H         1 <0>         0.1178
     36 H10         7.7298   -1.3679   -2.2218 H         1 <0>         0.1208
     37 H11         9.0098   -3.1432   -3.1826 H         1 <0>         0.1137
     38 H12         7.3949   -2.7912   -4.8997 H         1 <0>         0.1341
     39 H13         5.5843   -3.8798   -6.3898 H         1 <0>         0.1861
     40 H14         7.0767   -6.4062   -2.5609 H         1 <0>         0.1821
     41 H15         8.9288   -5.7048   -1.8184 H         1 <0>         0.3721
     42 H16         4.0347    2.0044    0.1081 H         1 <0>         0.4114
     43 H17         5.6516    2.3756   -0.1575 H         1 <0>         0.4029
@<TRIPOS>BOND
     1    1    6 ar
     2    1    2 ar
     3    1   27 1
     4    2    3 ar
     5    2   28 1
     6    3    4 ar
     7    3   29 1
     8    4    5 ar
     9    4    8 1
    10    5    6 ar
    11    5    7 1
    12    6   30 1
    13    7   31 1
    14    7   32 1
    15    8    9 1
    16    9   10 2
    17    9   26 1
    18   10   11 1
    19   10   13 1
    20   11   12 3
    21   13   18 ar
    22   13   14 ar
    23   14   15 ar
    24   14   33 1
    25   15   16 ar
    26   15   34 1
    27   16   17 ar
    28   16   35 1
    29   17   18 ar
    30   17   19 1
    31   18   36 1
    32   19   20 1
    33   19   25 1
    34   19   37 1
    35   20   24 2
    36   20   21 1
    37   21   22 2
    38   21   38 1
    39   22   23 1
    40   22   39 1
    41   23   24 1
    42   24   40 1
    43   25   41 1
    44   26   42 1
    45   26   43 1
@<TRIPOS>MOLECULE
CHEMBL38195__2
   43    45     0     0     0
SMALL
USER_CHARGES

@<TRIPOS>ATOM
      1 C1          1.0397   -0.3000   -3.1720 C.ar      1 <0>        -0.0633
      2 C2          2.2342    0.3969   -3.1800 C.ar      1 <0>        -0.1609
      3 C3          3.1372    0.2410   -2.1453 C.ar      1 <0>        -0.0731
      4 C4          2.8463   -0.6163   -1.0942 C.ar      1 <0>        -0.1921
      5 C5          1.6411   -1.3190   -1.0858 C.ar      1 <0>         0.2483
      6 C6          0.7413   -1.1566   -2.1287 C.ar      1 <0>        -0.1835
      7 N1          1.3414   -2.1853   -0.0290 N.pl3     1 <0>        -0.8699
      8 S1          3.9957   -0.8176    0.2260 S.3       1 <0>         0.0169
      9 C7          5.2449    0.3787   -0.1102 C.2       1 <0>         0.2160
     10 C8          6.5288   -0.0325   -0.4390 C.2       1 <0>        -0.1213
     11 C9          6.8385   -1.4290   -0.5049 C.1       1 <0>         0.2701
     12 N2          7.0842   -2.5369   -0.5572 N.1       1 <0>        -0.4241
     13 C10         7.5782    0.9725   -0.7215 C.ar      1 <0>        -0.0189
     14 C11         7.4614    1.8157   -1.8274 C.ar      1 <0>        -0.1061
     15 C12         8.4428    2.7501   -2.0853 C.ar      1 <0>        -0.1109
     16 C13         9.5416    2.8522   -1.2503 C.ar      1 <0>        -0.1039
     17 C14         9.6635    2.0191   -0.1526 C.ar      1 <0>        -0.1053
     18 C15         8.6854    1.0847    0.1200 C.ar      1 <0>        -0.0870
     19 C16        10.8637    2.1368    0.7511 C.3       1 <0>         0.2046
     20 C17        12.0350    1.4236    0.1261 C.2       1 <0>        -0.1462
     21 C18        12.3199    0.1138    0.4633 C.2       1 <0>        -0.1506
     22 C19        13.3807   -0.4986   -0.1172 C.2       1 <0>        -0.1666
     23 S2         14.0161    0.7897   -1.1773 S.3       1 <0>         0.0478
     24 C20        12.8215    2.0553   -0.7792 C.2       1 <0>        -0.1704
     25 O1         11.1885    3.5163    0.9343 O.3       1 <0>        -0.5440
     26 N3          4.9481    1.7170   -0.0470 N.pl3     1 <0>        -0.8252
     27 H1          0.3359   -0.1713   -3.9810 H         1 <0>         0.1275
     28 H2          2.4623    1.0648   -3.9975 H         1 <0>         0.1251
     29 H3          4.0693    0.7864   -2.1552 H         1 <0>         0.1242
     30 H4         -0.1926   -1.6989   -2.1255 H         1 <0>         0.1289
     31 H5          1.9719   -2.2981    0.6995 H         1 <0>         0.3994
     32 H6          0.5030   -2.6732   -0.0247 H         1 <0>         0.4041
     33 H7          6.6047    1.7365   -2.4802 H         1 <0>         0.1256
     34 H8          8.3536    3.4032   -2.9408 H         1 <0>         0.1283
     35 H9         10.3075    3.5852   -1.4566 H         1 <0>         0.1196
     36 H10         8.7793    0.4381    0.9799 H         1 <0>         0.1255
     37 H11        10.6369    1.6855    1.7170 H         1 <0>         0.1160
     38 H12        11.7066   -0.4138    1.1788 H         1 <0>         0.1351
     39 H13        13.7468   -1.5046    0.0251 H         1 <0>         0.1876
     40 H14        12.7458    3.0631   -1.1602 H         1 <0>         0.1829
     41 H15        11.4019    3.9824    0.1144 H         1 <0>         0.3723
     42 H16         4.0347    2.0044    0.1081 H         1 <0>         0.4100
     43 H17         5.6516    2.3756   -0.1575 H         1 <0>         0.4074
@<TRIPOS>BOND
     1    1    6 ar
     2    1    2 ar
     3    1   27 1
     4    2    3 ar
     5    2   28 1
     6    3    4 ar
     7    3   29 1
     8    4    5 ar
     9    4    8 1
    10    5    6 ar
    11    5    7 1
    12    6   30 1
    13    7   31 1
    14    7   32 1
    15    8    9 1
    16    9   10 2
    17    9   26 1
    18   10   11 1
    19   10   13 1
    20   11   12 3
    21   13   18 ar
    22   13   14 ar
    23   14   15 ar
    24   14   33 1
    25   15   16 ar
    26   15   34 1
    27   16   17 ar
    28   16   35 1
    29   17   18 ar
    30   17   19 1
    31   18   36 1
    32   19   20 1
    33   19   25 1
    34   19   37 1
    35   20   24 2
    36   20   21 1
    37   21   22 2
    38   21   38 1
    39   22   23 1
    40   22   39 1
    41   23   24 1
    42   24   40 1
    43   25   41 1
    44   26   42 1
    45   26   43 1
@<TRIPOS>MOLECULE
CHEMBL38195__3
   43    45     0     0     0
SMALL
USER_CHARGES

@<TRIPOS>ATOM
      1 C1          1.7816   -0.0928   -4.0219 C.ar      1 <0>        -0.0637
      2 C2          2.9467    0.5957   -3.7371 C.ar      1 <0>        -0.1615
      3 C3          3.6088    0.3781   -2.5435 C.ar      1 <0>        -0.0716
      4 C4          3.1047   -0.5329   -1.6268 C.ar      1 <0>        -0.1939
      5 C5          1.9291   -1.2271   -1.9139 C.ar      1 <0>         0.2486
      6 C6          1.2718   -1.0025   -3.1143 C.ar      1 <0>        -0.1837
      7 N1          1.4151   -2.1472   -0.9939 N.pl3     1 <0>        -0.8700
      8 S1          3.9469   -0.8128   -0.1046 S.3       1 <0>         0.0420
      9 C7          5.2449    0.3787   -0.1102 C.2       1 <0>         0.2097
     10 C8          6.5673   -0.0362   -0.1786 C.2       1 <0>        -0.1203
     11 C9          7.6222    0.9321   -0.1832 C.1       1 <0>         0.2619
     12 N2          8.4591    1.7003   -0.1868 N.1       1 <0>        -0.4302
     13 C10         6.8874   -1.4798   -0.2467 C.ar      1 <0>        -0.0085
     14 C11         6.5795   -2.3173    0.8263 C.ar      1 <0>        -0.0886
     15 C12         6.8805   -3.6616    0.7566 C.ar      1 <0>        -0.1122
     16 C13         7.4868   -4.1802   -0.3740 C.ar      1 <0>        -0.1031
     17 C14         7.7951   -3.3553   -1.4409 C.ar      1 <0>        -0.1079
     18 C15         7.4931   -2.0100   -1.3863 C.ar      1 <0>        -0.0851
     19 C16         8.4559   -3.9284   -2.6681 C.3       1 <0>         0.2056
     20 C17         9.9325   -4.0902   -2.4143 C.2       1 <0>        -0.1452
     21 C18        10.8222   -3.1040   -2.7971 C.2       1 <0>        -0.1497
     22 C19        12.1440   -3.2808   -2.5542 C.2       1 <0>        -0.1682
     23 S2         12.1630   -4.8802   -1.7613 S.3       1 <0>         0.0454
     24 C20        10.4075   -5.2024   -1.8023 C.2       1 <0>        -0.1693
     25 O1          7.8816   -5.2022   -2.9674 O.3       1 <0>        -0.5440
     26 N3          4.9481    1.7170   -0.0470 N.pl3     1 <0>        -0.8326
     27 H1          1.2660    0.0840   -4.9543 H         1 <0>         0.1266
     28 H2          3.3405    1.3053   -4.4497 H         1 <0>         0.1234
     29 H3          4.5188    0.9170   -2.3248 H         1 <0>         0.1215
     30 H4          0.3615   -1.5381   -3.3400 H         1 <0>         0.1284
     31 H5          1.8762   -2.3034   -0.1549 H         1 <0>         0.3990
     32 H6          0.5976   -2.6291   -1.1951 H         1 <0>         0.4037
     33 H7          6.1069   -1.9136    1.7096 H         1 <0>         0.1236
     34 H8          6.6427   -4.3108    1.5864 H         1 <0>         0.1268
     35 H9          7.7208   -5.2334   -0.4236 H         1 <0>         0.1174
     36 H10         7.7298   -1.3679   -2.2218 H         1 <0>         0.1210
     37 H11         8.3038   -3.2542   -3.5110 H         1 <0>         0.1142
     38 H12        10.4695   -2.2061   -3.2828 H         1 <0>         0.1343
     39 H13        12.9710   -2.6245   -2.7815 H         1 <0>         0.1869
     40 H14         9.8648   -6.0612   -1.4356 H         1 <0>         0.1831
     41 H15         7.9798   -5.8539   -2.2598 H         1 <0>         0.3719
     42 H16         4.0347    2.0044    0.1081 H         1 <0>         0.4115
     43 H17         5.6516    2.3756   -0.1575 H         1 <0>         0.4027
@<TRIPOS>BOND
     1    1    6 ar
     2    1    2 ar
     3    1   27 1
     4    2    3 ar
     5    2   28 1
     6    3    4 ar
     7    3   29 1
     8    4    5 ar
     9    4    8 1
    10    5    6 ar
    11    5    7 1
    12    6   30 1
    13    7   31 1
    14    7   32 1
    15    8    9 1
    16    9   10 2
    17    9   26 1
    18   10   11 1
    19   10   13 1
    20   11   12 3
    21   13   18 ar
    22   13   14 ar
    23   14   15 ar
    24   14   33 1
    25   15   16 ar
    26   15   34 1
    27   16   17 ar
    28   16   35 1
    29   17   18 ar
    30   17   19 1
    31   18   36 1
    32   19   20 1
    33   19   25 1
    34   19   37 1
    35   20   24 2
    36   20   21 1
    37   21   22 2
    38   21   38 1
    39   22   23 1
    40   22   39 1
    41   23   24 1
    42   24   40 1
    43   25   41 1
    44   26   42 1
    45   26   43 1
@<TRIPOS>MOLECULE
CHEMBL100473
   42    43     0     0     0
SMALL
USER_CHARGES

@<TRIPOS>ATOM
      1 C1          2.7792   -0.9284   -4.2869 C.ar      1 <0>        -0.0663
      2 C2          3.5243    0.1685   -3.8942 C.ar      1 <0>        -0.1632
      3 C3          4.1453    0.1812   -2.6595 C.ar      1 <0>        -0.0720
      4 C4          4.0217   -0.9084   -1.8096 C.ar      1 <0>        -0.1866
      5 C5          3.2696   -2.0147   -2.2057 C.ar      1 <0>         0.2459
      6 C6          2.6504   -2.0187   -3.4466 C.ar      1 <0>        -0.1854
      7 N1          3.1411   -3.1172   -1.3539 N.pl3     1 <0>        -0.8705
      8 S1          4.8127   -0.8954   -0.2352 S.3       1 <0>         0.0062
      9 C7          5.7412    0.6021   -0.2370 C.2       1 <0>         0.1816
     10 C8          7.1235    0.5588   -0.2665 C.2       1 <0>        -0.0347
     11 C9          7.7962   -0.6855   -0.4900 C.1       1 <0>         0.2757
     12 N2          8.3299   -1.6725   -0.6673 N.1       1 <0>        -0.3973
     13 C10         7.9101    1.8029   -0.0664 C.2       1 <0>        -0.0932
     14 C11         9.2841    1.7857   -0.2255 C.2       1 <0>         0.2045
     15 N3         10.0132    2.9389   -0.0400 N.pl3     1 <0>        -0.8282
     16 S2         10.1013    0.2879   -0.6656 S.3       1 <0>         0.0436
     17 C12        11.0309   -0.1287    0.7721 C.ar      1 <0>        -0.1954
     18 C13        10.8989    0.6257    1.9289 C.ar      1 <0>        -0.0710
     19 C14        11.6289    0.2966    3.0556 C.ar      1 <0>        -0.1630
     20 C15        12.4923   -0.7835    3.0342 C.ar      1 <0>        -0.0630
     21 C16        12.6303   -1.5410    1.8858 C.ar      1 <0>        -0.1852
     22 C17        11.8977   -1.2218    0.7524 C.ar      1 <0>         0.2542
     23 N4         12.0318   -1.9902   -0.4092 N.pl3     1 <0>        -0.8663
     24 C18         7.2460    3.0202    0.2913 C.1       1 <0>         0.2669
     25 N5          6.7191    3.9858    0.5750 N.1       1 <0>        -0.4225
     26 N6          5.0909    1.8154   -0.2091 N.pl3     1 <0>        -0.8426
     27 H1          2.2926   -0.9314   -5.2511 H         1 <0>         0.1254
     28 H2          3.6215    1.0176   -4.5545 H         1 <0>         0.1228
     29 H3          4.7270    1.0392   -2.3564 H         1 <0>         0.1245
     30 H4          2.0677   -2.8735   -3.7566 H         1 <0>         0.1270
     31 H5          3.5752   -3.1132   -0.4865 H         1 <0>         0.3994
     32 H6          2.6178   -3.8856   -1.6307 H         1 <0>         0.4026
     33 H7          9.5741    3.7452    0.2730 H         1 <0>         0.4022
     34 H8         10.9659    2.9449   -0.2223 H         1 <0>         0.4127
     35 H9         10.2261    1.4703    1.9490 H         1 <0>         0.1213
     36 H10        11.5249    0.8849    3.9552 H         1 <0>         0.1237
     37 H11        13.0608   -1.0358    3.9171 H         1 <0>         0.1265
     38 H12        13.3058   -2.3835    1.8727 H         1 <0>         0.1282
     39 H13        11.5217   -1.7633   -1.2024 H         1 <0>         0.3998
     40 H14        12.6349   -2.7499   -0.4213 H         1 <0>         0.4032
     41 H15         4.2134    1.8861    0.1980 H         1 <0>         0.4085
     42 H16         5.5104    2.5995   -0.5966 H         1 <0>         0.3999
@<TRIPOS>BOND
     1    1    6 ar
     2    1    2 ar
     3    1   27 1
     4    2    3 ar
     5    2   28 1
     6    3    4 ar
     7    3   29 1
     8    4    5 ar
     9    4    8 1
    10    5    6 ar
    11    5    7 1
    12    6   30 1
    13    7   31 1
    14    7   32 1
    15    8    9 1
    16    9   10 2
    17    9   26 1
    18   10   11 1
    19   10   13 1
    20   11   12 3
    21   13   14 2
    22   13   24 1
    23   14   15 1
    24   14   16 1
    25   15   33 1
    26   15   34 1
    27   16   17 1
    28   17   22 ar
    29   17   18 ar
    30   18   19 ar
    31   18   35 1
    32   19   20 ar
    33   19   36 1
    34   20   21 ar
    35   20   37 1
    36   21   22 ar
    37   21   38 1
    38   22   23 1
    39   23   39 1
    40   23   40 1
    41   24   25 3
    42   26   41 1
    43   26   42 1
@<TRIPOS>MOLECULE
CHEMBL383108
   51    54     0     0     0
SMALL
USER_CHARGES

@<TRIPOS>ATOM
      1 C1         -1.0025    1.8822    0.0469 C.3       1 <0>        -0.0851
      2 C2         -0.9816    0.3852   -0.1254 C.2       1 <0>        -0.1083
      3 C3         -1.3549   -0.3260   -1.2703 C.2       1 <0>         0.1051
      4 C4         -1.1871   -1.6535   -1.0105 C.2       1 <0>         0.0528
      5 N1         -0.7214   -1.8009    0.2579 N.pl3     1 <0>        -0.2485
      6 C5         -0.5833   -0.5482    0.8182 C.2       1 <0>        -0.0407
      7 C6         -0.1064   -0.4260    2.1410 C.2       1 <0>         0.3455
      8 C7          0.2173   -1.5918    2.8471 C.2       1 <0>        -0.1592
      9 C8          0.0585   -2.8494    2.2198 C.2       1 <0>         0.1810
     10 N2         -0.3897   -2.9403    1.0015 N.2       1 <0>        -0.2652
     11 C9          0.7048   -1.5109    4.1912 C.1       1 <0>         0.2639
     12 N3          1.0916   -1.4467    5.2574 N.1       1 <0>        -0.4066
     13 N4          0.0385    0.8167    2.7268 N.pl3     1 <0>        -0.6868
     14 C10         0.9629    1.7306    2.2091 C.ar      1 <0>         0.1649
     15 C11         1.8438    1.3374    1.2097 C.ar      1 <0>        -0.1276
     16 C12         2.7553    2.2400    0.6991 C.ar      1 <0>        -0.1020
     17 C13         2.7915    3.5395    1.1839 C.ar      1 <0>         0.0897
     18 C14         1.9122    3.9330    2.1824 C.ar      1 <0>        -0.1517
     19 C15         0.9962    3.0332    2.6902 C.ar      1 <0>        -0.1302
     20 O1          3.6894    4.4277    0.6805 O.3       1 <0>        -0.2596
     21 C16         3.6871    5.6907    1.1818 C.ar      1 <0>         0.0842
     22 C17         4.3020    5.9573    2.3968 C.ar      1 <0>        -0.1327
     23 C18         4.2986    7.2422    2.9039 C.ar      1 <0>        -0.1055
     24 C19         3.6832    8.2622    2.2020 C.ar      1 <0>        -0.1182
     25 C20         3.0693    7.9991    0.9912 C.ar      1 <0>        -0.1055
     26 C21         3.0748    6.7171    0.4768 C.ar      1 <0>        -0.1229
     27 N5         -1.8209    0.2296   -2.4752 N.am      1 <0>        -0.6555
     28 C22        -2.1478   -0.5747   -3.5061 C.2       1 <0>         0.7039
     29 O2         -2.0398   -1.7807   -3.3944 O.2       1 <0>        -0.5732
     30 N6         -2.5944   -0.0422   -4.6609 N.am      1 <0>        -0.7439
     31 C23        -2.9497   -0.9163   -5.7815 C.3       1 <0>         0.1046
     32 H1         -0.0147    2.2871   -0.1734 H         1 <0>         0.0753
     33 H2         -1.7335    2.3163   -0.6351 H         1 <0>         0.0623
     34 H3         -1.2742    2.1259    1.0740 H         1 <0>         0.0706
     35 H4         -1.3916   -2.4583   -1.7010 H         1 <0>         0.2075
     36 H5          0.3076   -3.7491    2.7628 H         1 <0>         0.2028
     37 H6         -0.5006    1.0557    3.4969 H         1 <0>         0.4208
     38 H7          1.8160    0.3258    0.8325 H         1 <0>         0.1289
     39 H8          3.4406    1.9343   -0.0777 H         1 <0>         0.1360
     40 H9          1.9413    4.9446    2.5595 H         1 <0>         0.1325
     41 H10         0.3088    3.3409    3.4643 H         1 <0>         0.1300
     42 H11         4.7825    5.1609    2.9457 H         1 <0>         0.1303
     43 H12         4.7767    7.4502    3.8497 H         1 <0>         0.1304
     44 H13         3.6817    9.2661    2.6002 H         1 <0>         0.1287
     45 H14         2.5888    8.7975    0.4453 H         1 <0>         0.1314
     46 H15         2.5994    6.5131   -0.4712 H         1 <0>         0.1318
     47 H16        -1.9070    1.1916   -2.5643 H         1 <0>         0.4109
     48 H17        -2.6805    0.9199   -4.7500 H         1 <0>         0.4004
     49 H18        -3.2872   -0.3103   -6.6223 H         1 <0>         0.0789
     50 H19        -2.0772   -1.4977   -6.0797 H         1 <0>         0.0620
     51 H20        -3.7492   -1.5915   -5.4763 H         1 <0>         0.0618
@<TRIPOS>BOND
     1    1    2 1
     2    1   32 1
     3    1   33 1
     4    1   34 1
     5    2    6 2
     6    2    3 1
     7    3    4 2
     8    3   27 1
     9    4    5 1
    10    4   35 1
    11    5   10 1
    12    5    6 1
    13    6    7 1
    14    7    8 2
    15    7   13 1
    16    8    9 1
    17    8   11 1
    18    9   10 2
    19    9   36 1
    20   11   12 3
    21   13   14 1
    22   13   37 1
    23   14   19 ar
    24   14   15 ar
    25   15   16 ar
    26   15   38 1
    27   16   17 ar
    28   16   39 1
    29   17   18 ar
    30   17   20 1
    31   18   19 ar
    32   18   40 1
    33   19   41 1
    34   20   21 1
    35   21   26 ar
    36   21   22 ar
    37   22   23 ar
    38   22   42 1
    39   23   24 ar
    40   23   43 1
    41   24   25 ar
    42   24   44 1
    43   25   26 ar
    44   25   45 1
    45   26   46 1
    46   27   28 am
    47   27   47 1
    48   28   29 2
    49   28   30 am
    50   30   31 1
    51   30   48 1
    52   31   49 1
    53   31   50 1
    54   31   51 1
@<TRIPOS>MOLECULE
CHEMBL201833
   65    69     0     0     0
SMALL
USER_CHARGES

@<TRIPOS>ATOM
      1 C1         -0.8851    1.7041   -0.1729 C.3       1 <0>        -0.0986
      2 C2         -0.8111    0.2005   -0.2428 C.2       1 <0>        -0.0060
      3 C3         -1.0740   -0.6022   -1.3707 C.2       1 <0>        -0.2054
      4 C4         -0.8863   -1.9197   -0.9891 C.2       1 <0>         0.1009
      5 N1         -0.5249   -1.9498    0.3071 N.pl3     1 <0>        -0.2451
      6 C5         -0.4667   -0.6555    0.7841 C.2       1 <0>        -0.0696
      7 C6         -0.0994   -0.4255    2.1312 C.2       1 <0>         0.3609
      8 C7          0.1990   -1.5273    2.9416 C.2       1 <0>        -0.1674
      9 C8          0.1258   -2.8304    2.3958 C.2       1 <0>         0.1995
     10 N2         -0.2224   -3.0219    1.1574 N.2       1 <0>        -0.2803
     11 C9          0.5754   -1.3370    4.3101 C.1       1 <0>         0.2620
     12 N3          0.8740   -1.1860    5.3957 N.1       1 <0>        -0.4026
     13 N4         -0.0363    0.8573    2.6350 N.pl3     1 <0>        -0.6867
     14 C10         0.9064    1.7608    2.1322 C.ar      1 <0>         0.1602
     15 C11         1.8659    1.3307    1.2246 C.ar      1 <0>        -0.1282
     16 C12         2.7958    2.2228    0.7289 C.ar      1 <0>        -0.1017
     17 C13         2.7720    3.5487    1.1372 C.ar      1 <0>         0.0936
     18 C14         1.8138    3.9791    2.0438 C.ar      1 <0>        -0.1503
     19 C15         0.8797    3.0895    2.5360 C.ar      1 <0>        -0.1267
     20 O1          3.6883    4.4265    0.6490 O.3       1 <0>        -0.2589
     21 C16         3.6862    5.6920    1.1439 C.ar      1 <0>         0.0829
     22 C17         4.3014    5.9647    2.3574 C.ar      1 <0>        -0.1312
     23 C18         4.2982    7.2521    2.8580 C.ar      1 <0>        -0.1061
     24 C19         3.6823    8.2686    2.1513 C.ar      1 <0>        -0.1177
     25 C20         3.0682    7.9994    0.9420 C.ar      1 <0>        -0.1054
     26 C21         3.0738    6.7149    0.4339 C.ar      1 <0>        -0.1228
     27 C22        -1.4746   -0.1274   -2.7081 C.2       1 <0>         0.5954
     28 O2         -1.6063    1.0633   -2.9163 O.2       1 <0>        -0.5267
     29 N5         -1.6946   -1.0133   -3.6998 N.am      1 <0>        -0.7290
     30 C23        -2.0925   -0.5416   -5.0284 C.3       1 <0>         0.1239
     31 C24        -2.2767   -1.7404   -5.9612 C.3       1 <0>         0.0437
     32 N6         -2.6757   -1.2674   -7.2935 N.3       1 <0>        -0.5332
     33 C25        -4.0108   -0.6530   -7.2565 C.3       1 <0>         0.0116
     34 C26        -4.3611   -0.1220   -8.6490 C.3       1 <0>         0.0625
     35 O3         -4.2833   -1.1917   -9.5951 O.3       1 <0>        -0.3851
     36 C27        -2.9965   -1.8125   -9.6578 C.3       1 <0>         0.0625
     37 C28        -2.6324   -2.3607   -8.2754 C.3       1 <0>         0.0186
     38 H1          0.1007    2.1259   -0.3686 H         1 <0>         0.0805
     39 H2         -1.5909    2.0682   -0.9195 H         1 <0>         0.0900
     40 H3         -1.2188    2.0056    0.8200 H         1 <0>         0.0665
     41 H4         -1.0100   -2.7823   -1.6271 H         1 <0>         0.1867
     42 H5          0.3558   -3.6812    3.0201 H         1 <0>         0.2052
     43 H6         -0.6454    1.1329    3.3378 H         1 <0>         0.4226
     44 H7          1.8848    0.2986    0.9070 H         1 <0>         0.1274
     45 H8          3.5421    1.8885    0.0235 H         1 <0>         0.1370
     46 H9          1.7962    5.0112    2.3614 H         1 <0>         0.1334
     47 H10         0.1312    3.4257    3.2382 H         1 <0>         0.1310
     48 H11         4.7820    5.1710    2.9101 H         1 <0>         0.1299
     49 H12         4.7769    7.4649    3.8025 H         1 <0>         0.1303
     50 H13         3.6807    9.2744    2.5446 H         1 <0>         0.1288
     51 H14         2.5872    8.7950    0.3923 H         1 <0>         0.1318
     52 H15         2.5981    6.5061   -0.5130 H         1 <0>         0.1328
     53 H16        -1.5895   -1.9632   -3.5337 H         1 <0>         0.3984
     54 H17        -3.0310    0.0077   -4.9530 H         1 <0>         0.0702
     55 H18        -1.3188    0.1141   -5.4280 H         1 <0>         0.0806
     56 H19        -1.3383   -2.2897   -6.0366 H         1 <0>         0.0847
     57 H20        -3.0504   -2.3961   -5.5616 H         1 <0>         0.0436
     58 H21        -4.7465   -1.3990   -6.9557 H         1 <0>         0.0457
     59 H22        -4.0130    0.1700   -6.5419 H         1 <0>         0.0914
     60 H23        -5.3729    0.2833   -8.6401 H         1 <0>         0.1000
     61 H24        -3.6568    0.6620   -8.9273 H         1 <0>         0.0622
     62 H25        -3.0214   -2.6298  -10.3785 H         1 <0>         0.1000
     63 H26        -2.2525   -1.0777   -9.9654 H         1 <0>         0.0618
     64 H27        -1.6284   -2.7841   -8.3047 H         1 <0>         0.0888
     65 H28        -3.3461   -3.1339   -7.9910 H         1 <0>         0.0453
@<TRIPOS>BOND
     1    1    2 1
     2    1   38 1
     3    1   39 1
     4    1   40 1
     5    2    6 2
     6    2    3 1
     7    3    4 2
     8    3   27 1
     9    4    5 1
    10    4   41 1
    11    5   10 1
    12    5    6 1
    13    6    7 1
    14    7    8 2
    15    7   13 1
    16    8    9 1
    17    8   11 1
    18    9   10 2
    19    9   42 1
    20   11   12 3
    21   13   14 1
    22   13   43 1
    23   14   19 ar
    24   14   15 ar
    25   15   16 ar
    26   15   44 1
    27   16   17 ar
    28   16   45 1
    29   17   18 ar
    30   17   20 1
    31   18   19 ar
    32   18   46 1
    33   19   47 1
    34   20   21 1
    35   21   26 ar
    36   21   22 ar
    37   22   23 ar
    38   22   48 1
    39   23   24 ar
    40   23   49 1
    41   24   25 ar
    42   24   50 1
    43   25   26 ar
    44   25   51 1
    45   26   52 1
    46   27   28 2
    47   27   29 am
    48   29   30 1
    49   29   53 1
    50   30   31 1
    51   30   54 1
    52   30   55 1
    53   31   32 1
    54   31   56 1
    55   31   57 1
    56   32   37 1
    57   32   33 1
    58   33   34 1
    59   33   58 1
    60   33   59 1
    61   34   35 1
    62   34   60 1
    63   34   61 1
    64   35   36 1
    65   36   37 1
    66   36   62 1
    67   36   63 1
    68   37   64 1
    69   37   65 1
@<TRIPOS>MOLECULE
CHEMBL201833__1
   66    70     0     0     0
SMALL
USER_CHARGES

@<TRIPOS>ATOM
      1 C1         -0.8851    1.7041   -0.1729 C.3       1 <0>        -0.1005
      2 C2         -0.8111    0.2005   -0.2428 C.2       1 <0>        -0.0039
      3 C3         -1.0740   -0.6022   -1.3707 C.2       1 <0>        -0.2184
      4 C4         -0.8863   -1.9197   -0.9891 C.2       1 <0>         0.0979
      5 N1         -0.5249   -1.9498    0.3071 N.pl3     1 <0>        -0.2402
      6 C5         -0.4667   -0.6555    0.7841 C.2       1 <0>        -0.0625
      7 C6         -0.0994   -0.4255    2.1312 C.2       1 <0>         0.3574
      8 C7          0.1990   -1.5273    2.9416 C.2       1 <0>        -0.1566
      9 C8          0.1258   -2.8304    2.3958 C.2       1 <0>         0.2066
     10 N2         -0.2224   -3.0219    1.1574 N.2       1 <0>        -0.2830
     11 C9          0.5754   -1.3370    4.3101 C.1       1 <0>         0.2542
     12 N3          0.8740   -1.1860    5.3957 N.1       1 <0>        -0.3896
     13 N4         -0.0363    0.8573    2.6350 N.pl3     1 <0>        -0.6861
     14 C10         0.9064    1.7608    2.1322 C.ar      1 <0>         0.1562
     15 C11         1.8659    1.3307    1.2246 C.ar      1 <0>        -0.1295
     16 C12         2.7958    2.2228    0.7289 C.ar      1 <0>        -0.1041
     17 C13         2.7720    3.5487    1.1372 C.ar      1 <0>         0.0965
     18 C14         1.8138    3.9791    2.0438 C.ar      1 <0>        -0.1495
     19 C15         0.8797    3.0895    2.5360 C.ar      1 <0>        -0.1242
     20 O1          3.6883    4.4265    0.6490 O.3       1 <0>        -0.2584
     21 C16         3.6862    5.6920    1.1439 C.ar      1 <0>         0.0794
     22 C17         4.3014    5.9647    2.3574 C.ar      1 <0>        -0.1303
     23 C18         4.2982    7.2521    2.8580 C.ar      1 <0>        -0.1045
     24 C19         3.6823    8.2686    2.1513 C.ar      1 <0>        -0.1151
     25 C20         3.0682    7.9994    0.9420 C.ar      1 <0>        -0.1055
     26 C21         3.0738    6.7149    0.4339 C.ar      1 <0>        -0.1233
     27 C22        -1.4746   -0.1274   -2.7081 C.2       1 <0>         0.6063
     28 O2         -1.6063    1.0633   -2.9163 O.2       1 <0>        -0.5165
     29 N5         -1.6946   -1.0133   -3.6998 N.am      1 <0>        -0.7339
     30 C23        -2.0925   -0.5416   -5.0284 C.3       1 <0>         0.0984
     31 C24        -2.2767   -1.7404   -5.9612 C.3       1 <0>        -0.0224
     32 N6         -2.6757   -1.2674   -7.2935 N.4       1 <0>        -0.3817
     33 C25        -3.9984   -0.6325   -7.2122 C.3       1 <0>        -0.0513
     34 C26        -4.4117   -0.1404   -8.6015 C.3       1 <0>         0.0363
     35 O3         -4.4137   -1.2440   -9.5114 O.3       1 <0>        -0.3560
     36 C27        -3.1521   -1.9110   -9.6073 C.3       1 <0>         0.0355
     37 C28        -2.7364   -2.4064   -8.2199 C.3       1 <0>        -0.0425
     38 H1          0.1007    2.1259   -0.3686 H         1 <0>         0.0826
     39 H2         -1.5909    2.0682   -0.9195 H         1 <0>         0.0873
     40 H3         -1.2188    2.0056    0.8200 H         1 <0>         0.0703
     41 H4         -1.0100   -2.7823   -1.6271 H         1 <0>         0.1845
     42 H5          0.3558   -3.6812    3.0201 H         1 <0>         0.2091
     43 H6         -0.6454    1.1329    3.3378 H         1 <0>         0.4241
     44 H7          1.8848    0.2986    0.9070 H         1 <0>         0.1257
     45 H8          3.5421    1.8885    0.0235 H         1 <0>         0.1366
     46 H9          1.7962    5.0112    2.3614 H         1 <0>         0.1350
     47 H10         0.1312    3.4257    3.2382 H         1 <0>         0.1323
     48 H11         4.7820    5.1710    2.9101 H         1 <0>         0.1304
     49 H12         4.7769    7.4649    3.8025 H         1 <0>         0.1319
     50 H13         3.6807    9.2744    2.5446 H         1 <0>         0.1304
     51 H14         2.5872    8.7950    0.3923 H         1 <0>         0.1322
     52 H15         2.5981    6.5061   -0.5130 H         1 <0>         0.1312
     53 H16        -1.5895   -1.9632   -3.5337 H         1 <0>         0.4066
     54 H17        -3.0310    0.0077   -4.9530 H         1 <0>         0.0904
     55 H18        -1.3188    0.1141   -5.4280 H         1 <0>         0.0914
     56 H19        -1.3383   -2.2897   -6.0366 H         1 <0>         0.1414
     57 H20        -3.0504   -2.3961   -5.5616 H         1 <0>         0.1392
     58 H21        -4.7281   -1.3573   -6.8512 H         1 <0>         0.1418
     59 H22        -3.9544    0.2127   -6.5253 H         1 <0>         0.1458
     60 H23        -5.4109    0.2924   -8.5520 H         1 <0>         0.1435
     61 H24        -3.7042    0.6139   -8.9458 H         1 <0>         0.0831
     62 H25        -3.2396   -2.7596  -10.2857 H         1 <0>         0.1433
     63 H26        -2.4015   -1.2172   -9.9860 H         1 <0>         0.0825
     64 H27        -1.7556   -2.8780   -8.2809 H         1 <0>         0.1446
     65 H28        -3.4666   -3.1305   -7.8585 H         1 <0>         0.1408
     66 H29        -2.0004   -0.5968   -7.6286 H         1 <0>         0.4262
@<TRIPOS>BOND
     1    1    2 1
     2    1   38 1
     3    1   39 1
     4    1   40 1
     5    2    6 2
     6    2    3 1
     7    3    4 2
     8    3   27 1
     9    4    5 1
    10    4   41 1
    11    5   10 1
    12    5    6 1
    13    6    7 1
    14    7    8 2
    15    7   13 1
    16    8    9 1
    17    8   11 1
    18    9   10 2
    19    9   42 1
    20   11   12 3
    21   13   14 1
    22   13   43 1
    23   14   19 ar
    24   14   15 ar
    25   15   16 ar
    26   15   44 1
    27   16   17 ar
    28   16   45 1
    29   17   18 ar
    30   17   20 1
    31   18   19 ar
    32   18   46 1
    33   19   47 1
    34   20   21 1
    35   21   26 ar
    36   21   22 ar
    37   22   23 ar
    38   22   48 1
    39   23   24 ar
    40   23   49 1
    41   24   25 ar
    42   24   50 1
    43   25   26 ar
    44   25   51 1
    45   26   52 1
    46   27   28 2
    47   27   29 am
    48   29   30 1
    49   29   53 1
    50   30   31 1
    51   30   54 1
    52   30   55 1
    53   31   32 1
    54   31   56 1
    55   31   57 1
    56   32   37 1
    57   32   33 1
    58   32   66 1
    59   33   34 1
    60   33   58 1
    61   33   59 1
    62   34   35 1
    63   34   60 1
    64   34   61 1
    65   35   36 1
    66   36   37 1
    67   36   62 1
    68   36   63 1
    69   37   64 1
    70   37   65 1
@<TRIPOS>MOLECULE
CHEMBL34436
   49    51     0     0     0
SMALL
USER_CHARGES

@<TRIPOS>ATOM
      1 C1         -0.0493    1.2832    0.4434 C.ar      1 <0>        -0.1230
      2 C2          1.1271    2.0091    0.4530 C.ar      1 <0>        -0.1189
      3 C3          2.3419    1.3580    0.3471 C.ar      1 <0>        -0.1186
      4 C4          2.3803   -0.0191    0.2322 C.ar      1 <0>        -0.0796
      5 C5          1.2039   -0.7450    0.2236 C.ar      1 <0>        -0.1045
      6 C6         -0.0109   -0.0938    0.3280 C.ar      1 <0>        -0.1190
      7 C7          3.7046   -0.7288    0.1159 C.3       1 <0>        -0.1070
      8 C8          4.2156   -1.0871    1.5128 C.3       1 <0>         0.1538
      9 C9          5.5944   -1.6859    1.4050 C.ar      1 <0>        -0.1114
     10 C10         5.7445   -3.0125    1.0410 C.ar      1 <0>        -0.1078
     11 C11         7.0067   -3.5696    0.9398 C.ar      1 <0>        -0.1103
     12 C12         8.1247   -2.8045    1.2016 C.ar      1 <0>        -0.1117
     13 C13         7.9802   -1.4663    1.5687 C.ar      1 <0>        -0.0180
     14 C14         6.7043   -0.9088    1.6639 C.ar      1 <0>        -0.0896
     15 C15         9.1753   -0.6398    1.8511 C.2       1 <0>        -0.1199
     16 C16        10.0798   -0.3587    0.8370 C.2       1 <0>         0.2154
     17 N1          9.8664   -0.8469   -0.4276 N.pl3     1 <0>        -0.8260
     18 S1         11.5025    0.6251    1.1731 S.3       1 <0>         0.0178
     19 C17        11.2368    2.0930    0.2355 C.ar      1 <0>        -0.1924
     20 C18        10.0375    2.2825   -0.4356 C.ar      1 <0>        -0.0732
     21 C19         9.8313    3.4350   -1.1701 C.ar      1 <0>        -0.1608
     22 C20        10.8177    4.4018   -1.2393 C.ar      1 <0>        -0.0632
     23 C21        12.0160    4.2216   -0.5739 C.ar      1 <0>        -0.1835
     24 C22        12.2297    3.0709    0.1703 C.ar      1 <0>         0.2483
     25 N2         13.4393    2.8890    0.8493 N.pl3     1 <0>        -0.8699
     26 C23         9.3981   -0.1304    3.1707 C.1       1 <0>         0.2689
     27 N3          9.5747    0.2738    4.2176 N.1       1 <0>        -0.4226
     28 O1          3.3309   -2.0339    2.1153 O.3       1 <0>        -0.5461
     29 H1         -0.9982    1.7916    0.5306 H         1 <0>         0.1206
     30 H2          1.0971    3.0849    0.5427 H         1 <0>         0.1213
     31 H3          3.2609    1.9251    0.3539 H         1 <0>         0.1199
     32 H4          1.2339   -1.8208    0.1334 H         1 <0>         0.1191
     33 H5         -0.9300   -0.6609    0.3208 H         1 <0>         0.1212
     34 H6          3.5785   -1.6396   -0.4695 H         1 <0>         0.0780
     35 H7          4.4244   -0.0762   -0.3780 H         1 <0>         0.0843
     36 H8          4.2573   -0.1872    2.1263 H         1 <0>         0.1083
     37 H9          4.8725   -3.6156    0.8353 H         1 <0>         0.1216
     38 H10         7.1172   -4.6057    0.6555 H         1 <0>         0.1279
     39 H11         9.1096   -3.2408    1.1230 H         1 <0>         0.1270
     40 H12         6.5860    0.1275    1.9439 H         1 <0>         0.1257
     41 H13         9.1217   -1.4448   -0.5974 H         1 <0>         0.4069
     42 H14        10.4602   -0.5940   -1.1518 H         1 <0>         0.4099
     43 H15         9.2652    1.5293   -0.3844 H         1 <0>         0.1249
     44 H16         8.8970    3.5809   -1.6919 H         1 <0>         0.1249
     45 H17        10.6515    5.3001   -1.8153 H         1 <0>         0.1274
     46 H18        12.7841    4.9787   -0.6302 H         1 <0>         0.1289
     47 H19        13.5886    2.0820    1.3664 H         1 <0>         0.3993
     48 H20        14.1286    3.5699    0.8031 H         1 <0>         0.4041
     49 H21         3.2450   -2.8612    1.6220 H         1 <0>         0.3713
@<TRIPOS>BOND
     1    1    6 ar
     2    1    2 ar
     3    1   29 1
     4    2    3 ar
     5    2   30 1
     6    3    4 ar
     7    3   31 1
     8    4    5 ar
     9    4    7 1
    10    5    6 ar
    11    5   32 1
    12    6   33 1
    13    7    8 1
    14    7   34 1
    15    7   35 1
    16    8    9 1
    17    8   28 1
    18    8   36 1
    19    9   14 ar
    20    9   10 ar
    21   10   11 ar
    22   10   37 1
    23   11   12 ar
    24   11   38 1
    25   12   13 ar
    26   12   39 1
    27   13   14 ar
    28   13   15 1
    29   14   40 1
    30   15   16 2
    31   15   26 1
    32   16   17 1
    33   16   18 1
    34   17   41 1
    35   17   42 1
    36   18   19 1
    37   19   24 ar
    38   19   20 ar
    39   20   21 ar
    40   20   43 1
    41   21   22 ar
    42   21   44 1
    43   22   23 ar
    44   22   45 1
    45   23   24 ar
    46   23   46 1
    47   24   25 1
    48   25   47 1
    49   25   48 1
    50   26   27 3
    51   28   49 1
@<TRIPOS>MOLECULE
CHEMBL34436__1
   49    51     0     0     0
SMALL
USER_CHARGES

@<TRIPOS>ATOM
      1 C1          0.1284    1.9456   -0.2414 C.ar      1 <0>        -0.1239
      2 C2          1.3543    2.5845   -0.2350 C.ar      1 <0>        -0.1194
      3 C3          2.5203    1.8424   -0.2131 C.ar      1 <0>        -0.1191
      4 C4          2.4606    0.4614   -0.1972 C.ar      1 <0>        -0.0783
      5 C5          1.2347   -0.1774   -0.2027 C.ar      1 <0>        -0.1046
      6 C6          0.0687    0.5647   -0.2260 C.ar      1 <0>        -0.1193
      7 C7          3.7318   -0.3476   -0.1744 C.3       1 <0>        -0.1076
      8 C8          4.1471   -0.6041    1.2757 C.3       1 <0>         0.1553
      9 C9          5.4805   -1.3059    1.2996 C.ar      1 <0>        -0.1169
     10 C10         5.5476   -2.6688    1.0693 C.ar      1 <0>        -0.1054
     11 C11         6.7678   -3.3204    1.0896 C.ar      1 <0>        -0.1137
     12 C12         7.9264   -2.6141    1.3400 C.ar      1 <0>        -0.0816
     13 C13         7.8655   -1.2398    1.5726 C.ar      1 <0>        -0.0125
     14 C14         6.6320   -0.5875    1.5455 C.ar      1 <0>        -0.0912
     15 C15         9.1045   -0.4760    1.8419 C.2       1 <0>        -0.1206
     16 C16        10.0750   -0.3586    0.8571 C.2       1 <0>         0.2099
     17 N1         11.2237    0.3496    1.1068 N.pl3     1 <0>        -0.8316
     18 S1          9.8326   -1.1187   -0.7139 S.3       1 <0>         0.0438
     19 C17        11.0771   -2.3642   -0.7814 C.ar      1 <0>        -0.1949
     20 C18        11.8739   -2.6124    0.3268 C.ar      1 <0>        -0.0758
     21 C19        12.8493   -3.5902    0.2716 C.ar      1 <0>        -0.1600
     22 C20        13.0347   -4.3232   -0.8863 C.ar      1 <0>        -0.0634
     23 C21        12.2454   -4.0828   -1.9956 C.ar      1 <0>        -0.1830
     24 C22        11.2604   -3.1076   -1.9476 C.ar      1 <0>         0.2491
     25 N2         10.4566   -2.8665   -3.0670 N.pl3     1 <0>        -0.8698
     26 C23         9.3015    0.1418    3.1187 C.1       1 <0>         0.2613
     27 N3          9.4579    0.6319    4.1315 N.1       1 <0>        -0.4292
     28 O1          3.1659   -1.4236    1.9143 O.3       1 <0>        -0.5476
     29 H1         -0.7826    2.5255   -0.2539 H         1 <0>         0.1201
     30 H2          1.4010    3.6634   -0.2474 H         1 <0>         0.1207
     31 H3          3.4781    2.3415   -0.2088 H         1 <0>         0.1199
     32 H4          1.1880   -1.2563   -0.1907 H         1 <0>         0.1192
     33 H5         -0.8891    0.0655   -0.2307 H         1 <0>         0.1209
     34 H6          3.5657   -1.2996   -0.6786 H         1 <0>         0.0783
     35 H7          4.5215    0.2020   -0.6867 H         1 <0>         0.0851
     36 H8          4.2269    0.3458    1.8042 H         1 <0>         0.1063
     37 H9          4.6436   -3.2262    0.8732 H         1 <0>         0.1192
     38 H10         6.8135   -4.3843    0.9094 H         1 <0>         0.1251
     39 H11         8.8782   -3.1241    1.3563 H         1 <0>         0.1218
     40 H12         6.5787    0.4768    1.7211 H         1 <0>         0.1218
     41 H13        11.3257    0.8289    1.9439 H         1 <0>         0.4037
     42 H14        11.9337    0.3708    0.4462 H         1 <0>         0.4108
     43 H15        11.7323   -2.0413    1.2325 H         1 <0>         0.1229
     44 H16        13.4686   -3.7821    1.1353 H         1 <0>         0.1241
     45 H17        13.7987   -5.0856   -0.9242 H         1 <0>         0.1269
     46 H18        12.3931   -4.6572   -2.8982 H         1 <0>         0.1286
     47 H19         9.7706   -2.1816   -3.0330 H         1 <0>         0.3993
     48 H20        10.5853   -3.3843   -3.8770 H         1 <0>         0.4040
     49 H21         3.0417   -2.2866    1.4961 H         1 <0>         0.3712
@<TRIPOS>BOND
     1    1    6 ar
     2    1    2 ar
     3    1   29 1
     4    2    3 ar
     5    2   30 1
     6    3    4 ar
     7    3   31 1
     8    4    5 ar
     9    4    7 1
    10    5    6 ar
    11    5   32 1
    12    6   33 1
    13    7    8 1
    14    7   34 1
    15    7   35 1
    16    8    9 1
    17    8   28 1
    18    8   36 1
    19    9   14 ar
    20    9   10 ar
    21   10   11 ar
    22   10   37 1
    23   11   12 ar
    24   11   38 1
    25   12   13 ar
    26   12   39 1
    27   13   14 ar
    28   13   15 1
    29   14   40 1
    30   15   16 2
    31   15   26 1
    32   16   17 1
    33   16   18 1
    34   17   41 1
    35   17   42 1
    36   18   19 1
    37   19   24 ar
    38   19   20 ar
    39   20   21 ar
    40   20   43 1
    41   21   22 ar
    42   21   44 1
    43   22   23 ar
    44   22   45 1
    45   23   24 ar
    46   23   46 1
    47   24   25 1
    48   25   47 1
    49   25   48 1
    50   26   27 3
    51   28   49 1
@<TRIPOS>MOLECULE
CHEMBL34436__2
   49    51     0     0     0
SMALL
USER_CHARGES

@<TRIPOS>ATOM
      1 C1          0.2099    1.3762   -0.4519 C.ar      1 <0>        -0.1232
      2 C2          1.3911    2.0872   -0.3510 C.ar      1 <0>        -0.1192
      3 C3          2.5970    1.4162   -0.2719 C.ar      1 <0>        -0.1044
      4 C4          2.6218    0.0343   -0.2932 C.ar      1 <0>        -0.0788
      5 C5          1.4406   -0.6767   -0.3932 C.ar      1 <0>        -0.1187
      6 C6          0.2347   -0.0057   -0.4738 C.ar      1 <0>        -0.1188
      7 C7          3.9366   -0.6972   -0.2080 C.3       1 <0>        -0.1088
      8 C8          4.2749   -0.9689    1.2592 C.3       1 <0>         0.1548
      9 C9          5.5253   -1.8061    1.3398 C.ar      1 <0>        -0.1114
     10 C10         6.7674   -1.1968    1.3091 C.ar      1 <0>        -0.1078
     11 C11         7.9200   -1.9583    1.3825 C.ar      1 <0>        -0.1101
     12 C12         7.8376   -3.3317    1.4869 C.ar      1 <0>        -0.1122
     13 C13         6.5883   -3.9521    1.5188 C.ar      1 <0>        -0.0175
     14 C14         5.4293   -3.1778    1.4496 C.ar      1 <0>        -0.0906
     15 C15         6.4926   -5.4250    1.6306 C.2       1 <0>        -0.1220
     16 C16         6.9408   -6.0643    2.7777 C.2       1 <0>         0.2164
     17 N1          7.4728   -5.3311    3.8085 N.pl3     1 <0>        -0.8254
     18 S1          6.8268   -7.8176    2.9108 S.3       1 <0>         0.0174
     19 C17         5.6583   -8.0718    4.2049 C.ar      1 <0>        -0.1926
     20 C18         4.9911   -6.9907    4.7621 C.ar      1 <0>        -0.0730
     21 C19         4.0746   -7.1926    5.7768 C.ar      1 <0>        -0.1605
     22 C20         3.8198   -8.4705    6.2400 C.ar      1 <0>        -0.0630
     23 C21         4.4800   -9.5538    5.6907 C.ar      1 <0>        -0.1837
     24 C22         5.3971   -9.3615    4.6683 C.ar      1 <0>         0.2483
     25 N2          6.0621  -10.4569    4.1069 N.pl3     1 <0>        -0.8700
     26 C23         5.9374   -6.1902    0.5549 C.1       1 <0>         0.2700
     27 N3          5.4970   -6.7971   -0.2984 N.1       1 <0>        -0.4240
     28 O1          4.4876    0.2713    1.9366 O.3       1 <0>        -0.5469
     29 H1         -0.7327    1.9004   -0.5092 H         1 <0>         0.1206
     30 H2          1.3717    3.1669   -0.3343 H         1 <0>         0.1212
     31 H3          3.5199    1.9717   -0.1937 H         1 <0>         0.1190
     32 H4          1.4599   -1.7564   -0.4103 H         1 <0>         0.1200
     33 H5         -0.6882   -0.5612   -0.5523 H         1 <0>         0.1213
     34 H6          3.8617   -1.6429   -0.7447 H         1 <0>         0.0847
     35 H7          4.7215   -0.0870   -0.6548 H         1 <0>         0.0784
     36 H8          3.4492   -1.5028    1.7296 H         1 <0>         0.1091
     37 H9          6.8373   -0.1222    1.2272 H         1 <0>         0.1219
     38 H10         8.8864   -1.4768    1.3578 H         1 <0>         0.1278
     39 H11         8.7381   -3.9252    1.5434 H         1 <0>         0.1269
     40 H12         4.4593   -3.6518    1.4776 H         1 <0>         0.1256
     41 H13         7.5995   -4.3746    3.7084 H         1 <0>         0.4073
     42 H14         7.7221   -5.7693    4.6372 H         1 <0>         0.4101
     43 H15         5.1881   -5.9913    4.4033 H         1 <0>         0.1250
     44 H16         3.5561   -6.3498    6.2095 H         1 <0>         0.1253
     45 H17         3.1032   -8.6225    7.0336 H         1 <0>         0.1276
     46 H18         4.2785  -10.5504    6.0550 H         1 <0>         0.1290
     47 H19         6.7059  -10.3203    3.3943 H         1 <0>         0.3992
     48 H20         5.8793  -11.3530    4.4302 H         1 <0>         0.4041
     49 H21         5.2095    0.8006    1.5706 H         1 <0>         0.3715
@<TRIPOS>BOND
     1    1    6 ar
     2    1    2 ar
     3    1   29 1
     4    2    3 ar
     5    2   30 1
     6    3    4 ar
     7    3   31 1
     8    4    5 ar
     9    4    7 1
    10    5    6 ar
    11    5   32 1
    12    6   33 1
    13    7    8 1
    14    7   34 1
    15    7   35 1
    16    8    9 1
    17    8   28 1
    18    8   36 1
    19    9   14 ar
    20    9   10 ar
    21   10   11 ar
    22   10   37 1
    23   11   12 ar
    24   11   38 1
    25   12   13 ar
    26   12   39 1
    27   13   14 ar
    28   13   15 1
    29   14   40 1
    30   15   16 2
    31   15   26 1
    32   16   17 1
    33   16   18 1
    34   17   41 1
    35   17   42 1
    36   18   19 1
    37   19   24 ar
    38   19   20 ar
    39   20   21 ar
    40   20   43 1
    41   21   22 ar
    42   21   44 1
    43   22   23 ar
    44   22   45 1
    45   23   24 ar
    46   23   46 1
    47   24   25 1
    48   25   47 1
    49   25   48 1
    50   26   27 3
    51   28   49 1
@<TRIPOS>MOLECULE
CHEMBL34436__3
   49    51     0     0     0
SMALL
USER_CHARGES

@<TRIPOS>ATOM
      1 C1         -0.4541    1.0850    0.4384 C.ar      1 <0>        -0.1238
      2 C2          0.6990    1.8463    0.3997 C.ar      1 <0>        -0.1192
      3 C3          1.9332    1.2282    0.3250 C.ar      1 <0>        -0.1044
      4 C4          2.0142   -0.1514    0.2894 C.ar      1 <0>        -0.0778
      5 C5          0.8611   -0.9127    0.3290 C.ar      1 <0>        -0.1191
      6 C6         -0.3731   -0.2945    0.4023 C.ar      1 <0>        -0.1192
      7 C7          3.3596   -0.8252    0.2070 C.3       1 <0>        -0.1090
      8 C8          3.8867   -1.0862    1.6195 C.3       1 <0>         0.1562
      9 C9          5.1722   -1.8686    1.5393 C.ar      1 <0>        -0.1170
     10 C10         6.3739   -1.2058    1.3618 C.ar      1 <0>        -0.1054
     11 C11         7.5584   -1.9167    1.2873 C.ar      1 <0>        -0.1136
     12 C12         7.5481   -3.2927    1.3896 C.ar      1 <0>        -0.0821
     13 C13         6.3399   -3.9669    1.5692 C.ar      1 <0>        -0.0121
     14 C14         5.1491   -3.2435    1.6488 C.ar      1 <0>        -0.0921
     15 C15         6.3217   -5.4429    1.6798 C.2       1 <0>        -0.1221
     16 C16         6.9342   -6.0654    2.7581 C.2       1 <0>         0.2107
     17 N1          6.9173   -7.4338    2.8606 N.pl3     1 <0>        -0.8313
     18 S1          7.7337   -5.0990    3.9956 S.3       1 <0>         0.0451
     19 C17         9.4367   -5.5202    3.8313 C.ar      1 <0>        -0.1953
     20 C18         9.8526   -6.3455    2.7967 C.ar      1 <0>        -0.0759
     21 C19        11.1891   -6.6742    2.6695 C.ar      1 <0>        -0.1603
     22 C20        12.1152   -6.1831    3.5716 C.ar      1 <0>        -0.0635
     23 C21        11.7099   -5.3600    4.6058 C.ar      1 <0>        -0.1831
     24 C22        10.3717   -5.0202    4.7379 C.ar      1 <0>         0.2494
     25 N2          9.9601   -4.1827    5.7803 N.pl3     1 <0>        -0.8697
     26 C23         5.6720   -6.2283    0.6740 C.1       1 <0>         0.2622
     27 N3          5.1565   -6.8513   -0.1239 N.1       1 <0>        -0.4305
     28 O1          4.1277    0.1601    2.2758 O.3       1 <0>        -0.5474
     29 H1         -1.4181    1.5678    0.5012 H         1 <0>         0.1203
     30 H2          0.6357    2.9241    0.4275 H         1 <0>         0.1210
     31 H3          2.8341    1.8230    0.2941 H         1 <0>         0.1193
     32 H4          0.9244   -1.9905    0.3009 H         1 <0>         0.1195
     33 H5         -1.2740   -0.8893    0.4328 H         1 <0>         0.1208
     34 H6          3.2600   -1.7718   -0.3243 H         1 <0>         0.0838
     35 H7          4.0569   -0.1802   -0.3276 H         1 <0>         0.0783
     36 H8          3.1486   -1.6569    2.1830 H         1 <0>         0.1076
     37 H9          6.3872   -0.1289    1.2807 H         1 <0>         0.1195
     38 H10         8.4930   -1.3936    1.1483 H         1 <0>         0.1251
     39 H11         8.4734   -3.8466    1.3306 H         1 <0>         0.1218
     40 H12         4.2110   -3.7593    1.7915 H         1 <0>         0.1217
     41 H13         6.4157   -7.9620    2.2201 H         1 <0>         0.4035
     42 H14         7.4071   -7.8728    3.5736 H         1 <0>         0.4109
     43 H15         9.1320   -6.7314    2.0908 H         1 <0>         0.1228
     44 H16        11.5111   -7.3167    1.8634 H         1 <0>         0.1240
     45 H17        13.1581   -6.4436    3.4680 H         1 <0>         0.1268
     46 H18        12.4359   -4.9784    5.3084 H         1 <0>         0.1287
     47 H19         9.0233   -3.9490    5.8735 H         1 <0>         0.3997
     48 H20        10.6115   -3.8359    6.4098 H         1 <0>         0.4040
     49 H21         4.7759    0.7212    1.8285 H         1 <0>         0.3712
@<TRIPOS>BOND
     1    1    6 ar
     2    1    2 ar
     3    1   29 1
     4    2    3 ar
     5    2   30 1
     6    3    4 ar
     7    3   31 1
     8    4    5 ar
     9    4    7 1
    10    5    6 ar
    11    5   32 1
    12    6   33 1
    13    7    8 1
    14    7   34 1
    15    7   35 1
    16    8    9 1
    17    8   28 1
    18    8   36 1
    19    9   14 ar
    20    9   10 ar
    21   10   11 ar
    22   10   37 1
    23   11   12 ar
    24   11   38 1
    25   12   13 ar
    26   12   39 1
    27   13   14 ar
    28   13   15 1
    29   14   40 1
    30   15   16 2
    31   15   26 1
    32   16   17 1
    33   16   18 1
    34   17   41 1
    35   17   42 1
    36   18   19 1
    37   19   24 ar
    38   19   20 ar
    39   20   21 ar
    40   20   43 1
    41   21   22 ar
    42   21   44 1
    43   22   23 ar
    44   22   45 1
    45   23   24 ar
    46   23   46 1
    47   24   25 1
    48   25   47 1
    49   25   48 1
    50   26   27 3
    51   28   49 1
@<TRIPOS>MOLECULE
CHEMBL30597
   42    44     0     0     0
SMALL
USER_CHARGES

@<TRIPOS>ATOM
      1 C1         -4.3096    1.3468    4.7908 C.3       1 <0>         0.0226
      2 O1         -4.3121   -0.0822    4.7872 O.3       1 <0>        -0.2985
      3 C2         -4.4413   -0.6962    3.5808 C.ar      1 <0>         0.1263
      4 C3         -4.5550    0.0565    2.4474 C.ar      1 <0>        -0.1574
      5 C4         -4.6879   -0.5740    1.2017 C.ar      1 <0>        -0.1001
      6 C5         -4.7037   -1.9876    1.1231 C.ar      1 <0>         0.1666
      7 C6         -4.5857   -2.7393    2.3021 C.ar      1 <0>        -0.1770
      8 C7         -4.4507   -2.0961    3.5116 C.ar      1 <0>         0.1554
      9 O2         -4.3310   -2.8261    4.6511 O.3       1 <0>        -0.2963
     10 C8         -4.3475   -4.2485    4.5151 C.3       1 <0>         0.0195
     11 N1         -4.8297   -2.5968   -0.0652 N.ar      1 <0>        -0.4628
     12 C9         -4.9412   -1.9233   -1.1816 C.ar      1 <0>         0.1795
     13 C10        -4.9347   -0.5193   -1.1978 C.ar      1 <0>        -0.0905
     14 C11        -4.8070    0.1809    0.0116 C.ar      1 <0>         0.2665
     15 N2         -4.7971    1.5607    0.0387 N.pl3     1 <0>        -0.7061
     16 C12        -5.9867    2.2650    0.2583 C.ar      1 <0>         0.1987
     17 C13        -7.1503    1.5789    0.5821 C.ar      1 <0>        -0.1593
     18 C14        -8.3235    2.2732    0.7986 C.ar      1 <0>        -0.0524
     19 C15        -8.3404    3.6586    0.6930 C.ar      1 <0>        -0.1234
     20 C16        -7.1763    4.3448    0.3695 C.ar      1 <0>        -0.0879
     21 C17        -6.0022    3.6504    0.1579 C.ar      1 <0>        -0.1571
     22 S1         -9.8380    4.5451    0.9688 S.3       1 <0>        -0.1232
     23 C18        -9.3719    6.2810    0.7240 C.3       1 <0>        -0.1429
     24 C19        -5.0580    0.1906   -2.4354 C.1       1 <0>         0.2558
     25 N3         -5.1559    0.7537   -3.4171 N.1       1 <0>        -0.3964
     26 H1         -4.2003    1.7073    5.8136 H         1 <0>         0.1069
     27 H2         -3.4784    1.7103    4.1867 H         1 <0>         0.0579
     28 H3         -5.2483    1.7128    4.3749 H         1 <0>         0.0598
     29 H4         -4.5430    1.1346    2.5100 H         1 <0>         0.1484
     30 H5         -4.5960   -3.8184    2.2601 H         1 <0>         0.1574
     31 H6         -3.5205   -4.5622    3.8782 H         1 <0>         0.0626
     32 H7         -4.2441   -4.7086    5.4978 H         1 <0>         0.1075
     33 H8         -5.2905   -4.5596    4.0657 H         1 <0>         0.0628
     34 H9         -5.0402   -2.4605   -2.1132 H         1 <0>         0.1736
     35 H10        -3.9657    2.0425   -0.0943 H         1 <0>         0.4176
     36 H11        -7.1371    0.5021    0.6641 H         1 <0>         0.1254
     37 H12        -9.2283    1.7397    1.0497 H         1 <0>         0.1308
     38 H13        -7.1892    5.4216    0.2875 H         1 <0>         0.1265
     39 H14        -5.0964    4.1840   -0.0895 H         1 <0>         0.1280
     40 H15       -10.2445    6.9163    0.8753 H         1 <0>         0.1093
     41 H16        -8.5959    6.5531    1.4394 H         1 <0>         0.0830
     42 H17        -8.9951    6.4165   -0.2898 H         1 <0>         0.0830
@<TRIPOS>BOND
     1    1    2 1
     2    1   26 1
     3    1   27 1
     4    1   28 1
     5    2    3 1
     6    3    8 ar
     7    3    4 ar
     8    4    5 ar
     9    4   29 1
    10    5   14 ar
    11    5    6 ar
    12    6    7 ar
    13    6   11 ar
    14    7    8 ar
    15    7   30 1
    16    8    9 1
    17    9   10 1
    18   10   31 1
    19   10   32 1
    20   10   33 1
    21   11   12 ar
    22   12   13 ar
    23   12   34 1
    24   13   14 ar
    25   13   24 1
    26   14   15 1
    27   15   16 1
    28   15   35 1
    29   16   21 ar
    30   16   17 ar
    31   17   18 ar
    32   17   36 1
    33   18   19 ar
    34   18   37 1
    35   19   20 ar
    36   19   22 1
    37   20   21 ar
    38   20   38 1
    39   21   39 1
    40   22   23 1
    41   23   40 1
    42   23   41 1
    43   23   42 1
    44   24   25 3
@<TRIPOS>MOLECULE
CHEMBL199006
   43    46     0     0     0
SMALL
USER_CHARGES

@<TRIPOS>ATOM
      1 C1         -0.1037    1.4732    0.1711 C.3       1 <0>        -0.1331
      2 C2          0.1274   -0.0157    0.2006 C.2       1 <0>         0.0277
      3 C3          0.2032   -0.7899   -1.0404 C.ar      1 <0>        -0.1437
      4 C4          0.0637   -0.1689   -2.2868 C.ar      1 <0>        -0.0417
      5 C5          0.1388   -0.9138   -3.4279 C.ar      1 <0>        -0.1368
      6 C6          0.3531   -2.2890   -3.3602 C.ar      1 <0>         0.1423
      7 C7          0.4934   -2.9200   -2.1354 C.ar      1 <0>        -0.1401
      8 C8          0.4202   -2.1781   -0.9657 C.ar      1 <0>         0.1628
      9 O1          0.5547   -2.7735    0.2387 O.3       1 <0>        -0.2677
     10 C9          0.4865   -2.0699    1.3797 C.2       1 <0>         0.5166
     11 O2          0.6142   -2.6499    2.4430 O.2       1 <0>        -0.4516
     12 C10         0.2768   -0.6752    1.3785 C.2       1 <0>        -0.2084
     13 C11         0.2127    0.0803    2.6808 C.3       1 <0>        -0.0248
     14 C12         1.6083    0.4359    3.1245 C.ar      1 <0>        -0.0831
     15 C13         2.2965   -0.4036    3.9804 C.ar      1 <0>        -0.1048
     16 C14         3.5766   -0.0774    4.3873 C.ar      1 <0>        -0.1190
     17 C15         4.1689    1.0880    3.9380 C.ar      1 <0>        -0.1205
     18 C16         3.4811    1.9271    3.0814 C.ar      1 <0>        -0.1215
     19 C17         2.2025    1.5988    2.6710 C.ar      1 <0>        -0.1180
     20 O3          0.4245   -3.0166   -4.5046 O.3       1 <0>        -0.2896
     21 C18        -0.6367   -3.7673   -4.8417 C.2       1 <0>         0.4933
     22 O4         -1.6508   -3.7081   -4.1876 O.2       1 <0>        -0.4821
     23 C19        -0.5626   -4.6838   -6.0357 C.3       1 <0>        -0.1728
     24 C20        -1.4170   -4.3274   -7.2539 C.3       1 <0>        -0.1451
     25 C21        -1.8047   -5.5130   -6.3680 C.3       1 <0>        -0.1427
     26 H1          0.8545    1.9906    0.2182 H         1 <0>         0.0939
     27 H2         -0.6172    1.7430   -0.7518 H         1 <0>         0.0821
     28 H3         -0.7155    1.7629    1.0254 H         1 <0>         0.0901
     29 H4         -0.1033    0.8965   -2.3455 H         1 <0>         0.1515
     30 H5          0.0311   -0.4343   -4.3897 H         1 <0>         0.1461
     31 H6          0.6589   -3.9863   -2.0911 H         1 <0>         0.1501
     32 H7         -0.3684    0.9923    2.5436 H         1 <0>         0.0934
     33 H8         -0.2620   -0.5423    3.4391 H         1 <0>         0.0934
     34 H9          1.8338   -1.3141    4.3314 H         1 <0>         0.1281
     35 H10         4.1140   -0.7330    5.0566 H         1 <0>         0.1227
     36 H11         5.1688    1.3432    4.2565 H         1 <0>         0.1215
     37 H12         3.9437    2.8378    2.7306 H         1 <0>         0.1221
     38 H13         1.6666    2.2524    1.9988 H         1 <0>         0.1211
     39 H14         0.4105   -5.1394   -6.2190 H         1 <0>         0.1424
     40 H15        -2.0327   -3.4300   -7.1916 H         1 <0>         0.1041
     41 H16        -1.0060   -4.5484   -8.2389 H         1 <0>         0.1155
     42 H17        -1.6488   -6.5140   -6.7702 H         1 <0>         0.1149
     43 H18        -2.6755   -5.3957   -5.7229 H         1 <0>         0.1118
@<TRIPOS>BOND
     1    1    2 1
     2    1   26 1
     3    1   27 1
     4    1   28 1
     5    2   12 2
     6    2    3 1
     7    3    8 ar
     8    3    4 ar
     9    4    5 ar
    10    4   29 1
    11    5    6 ar
    12    5   30 1
    13    6    7 ar
    14    6   20 1
    15    7    8 ar
    16    7   31 1
    17    8    9 1
    18    9   10 1
    19   10   11 2
    20   10   12 1
    21   12   13 1
    22   13   14 1
    23   13   32 1
    24   13   33 1
    25   14   19 ar
    26   14   15 ar
    27   15   16 ar
    28   15   34 1
    29   16   17 ar
    30   16   35 1
    31   17   18 ar
    32   17   36 1
    33   18   19 ar
    34   18   37 1
    35   19   38 1
    36   20   21 1
    37   21   22 2
    38   21   23 1
    39   23   25 1
    40   23   24 1
    41   23   39 1
    42   24   25 1
    43   24   40 1
    44   24   41 1
    45   25   42 1
    46   25   43 1
@<TRIPOS>MOLECULE
CHEMBL287959
   52    55     0     0     0
SMALL
USER_CHARGES

@<TRIPOS>ATOM
      1 C1          0.2985    1.4578    0.3758 C.ar      1 <0>        -0.1150
      2 C2          1.5213    2.1266    0.3652 C.ar      1 <0>        -0.1147
      3 C3          2.6937    1.4419    0.2715 C.ar      1 <0>        -0.1059
      4 C4          2.6747    0.0393    0.1846 C.ar      1 <0>        -0.0480
      5 C5          3.8647   -0.7020    0.0872 C.ar      1 <0>        -0.0915
      6 C6          3.8076   -2.0593    0.0051 C.ar      1 <0>        -0.1070
      7 C7          2.5848   -2.7281    0.0160 C.ar      1 <0>        -0.1071
      8 C8          1.4124   -2.0433    0.1092 C.ar      1 <0>        -0.0992
      9 C9          1.4314   -0.6407    0.1958 C.ar      1 <0>        -0.0514
     10 C10         0.2414    0.1006    0.2932 C.ar      1 <0>        -0.1067
     11 C11         5.0856   -2.8509   -0.0997 C.3       1 <0>         0.1883
     12 C12         5.3850   -3.1319   -1.5497 C.ar      1 <0>        -0.1060
     13 C13         4.7283   -4.1596   -2.2037 C.ar      1 <0>        -0.1046
     14 C14         4.9974   -4.4240   -3.5347 C.ar      1 <0>        -0.1098
     15 C15         5.9235   -3.6634   -4.2187 C.ar      1 <0>        -0.1106
     16 C16         6.5886   -2.6255   -3.5652 C.ar      1 <0>        -0.0175
     17 C17         6.3088   -2.3606   -2.2238 C.ar      1 <0>        -0.0872
     18 C18         7.5833   -1.8056   -4.2929 C.2       1 <0>        -0.1205
     19 C19         7.1804   -1.0033   -5.3509 C.2       1 <0>         0.2159
     20 N1          5.8598   -0.9700   -5.7226 N.pl3     1 <0>        -0.8257
     21 S1          8.3644   -0.0274   -6.2171 S.3       1 <0>         0.0178
     22 C20         7.9033    1.6320   -5.8449 C.ar      1 <0>        -0.1923
     23 C21         6.8870    1.8842   -4.9348 C.ar      1 <0>        -0.0728
     24 C22         6.5274    3.1867   -4.6441 C.ar      1 <0>        -0.1605
     25 C23         7.1774    4.2416   -5.2582 C.ar      1 <0>        -0.0632
     26 C24         8.1913    3.9998   -6.1664 C.ar      1 <0>        -0.1836
     27 C25         8.5629    2.6962   -6.4601 C.ar      1 <0>         0.2485
     28 N2          9.5926    2.4492   -7.3744 N.pl3     1 <0>        -0.8700
     29 C26         8.9613   -1.8404   -3.9050 C.1       1 <0>         0.2694
     30 N3         10.0545   -1.8680   -3.5972 N.1       1 <0>        -0.4229
     31 O1          4.9402   -4.0858    0.6046 O.3       1 <0>        -0.5436
     32 H1         -0.6173    2.0249    0.4552 H         1 <0>         0.1239
     33 H2          1.5386    3.2044    0.4319 H         1 <0>         0.1240
     34 H3          3.6337    1.9736    0.2638 H         1 <0>         0.1274
     35 H4          4.8194   -0.1973    0.0772 H         1 <0>         0.1281
     36 H5          2.5674   -3.8059   -0.0508 H         1 <0>         0.1198
     37 H6          0.4724   -2.5749    0.1161 H         1 <0>         0.1291
     38 H7         -0.7133   -0.4041    0.3029 H         1 <0>         0.1273
     39 H8          5.9044   -2.2784    0.3359 H         1 <0>         0.1174
     40 H9          4.0029   -4.7581   -1.6727 H         1 <0>         0.1201
     41 H10         4.4819   -5.2276   -4.0394 H         1 <0>         0.1283
     42 H11         6.1332   -3.8712   -5.2575 H         1 <0>         0.1273
     43 H12         6.8176   -1.5562   -1.7134 H         1 <0>         0.1257
     44 H13         5.2198   -1.5582   -5.2922 H         1 <0>         0.4070
     45 H14         5.5664   -0.3582   -6.4158 H         1 <0>         0.4098
     46 H15         6.3767    1.0629   -4.4539 H         1 <0>         0.1248
     47 H16         5.7360    3.3813   -3.9353 H         1 <0>         0.1246
     48 H17         6.8920    5.2574   -5.0279 H         1 <0>         0.1273
     49 H18         8.6968    4.8260   -6.6441 H         1 <0>         0.1289
     50 H19         9.8488    1.5369   -7.5815 H         1 <0>         0.3993
     51 H20        10.0503    3.1903   -7.8013 H         1 <0>         0.4041
     52 H21         4.2281   -4.6479    0.2700 H         1 <0>         0.3732
@<TRIPOS>BOND
     1    1   10 ar
     2    1    2 ar
     3    1   32 1
     4    2    3 ar
     5    2   33 1
     6    3    4 ar
     7    3   34 1
     8    4    9 ar
     9    4    5 ar
    10    5    6 ar
    11    5   35 1
    12    6    7 ar
    13    6   11 1
    14    7    8 ar
    15    7   36 1
    16    8    9 ar
    17    8   37 1
    18    9   10 ar
    19   10   38 1
    20   11   12 1
    21   11   31 1
    22   11   39 1
    23   12   17 ar
    24   12   13 ar
    25   13   14 ar
    26   13   40 1
    27   14   15 ar
    28   14   41 1
    29   15   16 ar
    30   15   42 1
    31   16   17 ar
    32   16   18 1
    33   17   43 1
    34   18   19 2
    35   18   29 1
    36   19   20 1
    37   19   21 1
    38   20   44 1
    39   20   45 1
    40   21   22 1
    41   22   27 ar
    42   22   23 ar
    43   23   24 ar
    44   23   46 1
    45   24   25 ar
    46   24   47 1
    47   25   26 ar
    48   25   48 1
    49   26   27 ar
    50   26   49 1
    51   27   28 1
    52   28   50 1
    53   28   51 1
    54   29   30 3
    55   31   52 1
@<TRIPOS>MOLECULE
CHEMBL287959__1
   52    55     0     0     0
SMALL
USER_CHARGES

@<TRIPOS>ATOM
      1 C1          0.0186    1.7723   -0.1486 C.ar      1 <0>        -0.1159
      2 C2          1.2106    2.4925   -0.2024 C.ar      1 <0>        -0.1156
      3 C3          2.4144    1.8579   -0.1800 C.ar      1 <0>        -0.1058
      4 C4          2.4597    0.4555   -0.1010 C.ar      1 <0>        -0.0476
      5 C5          3.6835   -0.2350   -0.0751 C.ar      1 <0>        -0.0919
      6 C6          3.6886   -1.5937    0.0023 C.ar      1 <0>        -0.1048
      7 C7          2.4965   -2.3138    0.0565 C.ar      1 <0>        -0.1058
      8 C8          1.2928   -1.6792    0.0336 C.ar      1 <0>        -0.0999
      9 C9          1.2476   -0.2768   -0.0458 C.ar      1 <0>        -0.0514
     10 C10         0.0237    0.4136   -0.0717 C.ar      1 <0>        -0.1066
     11 C11         5.0028   -2.3307    0.0293 C.3       1 <0>         0.1892
     12 C12         5.3642   -2.7647   -1.3678 C.ar      1 <0>        -0.1116
     13 C13         4.7760   -3.8917   -1.9146 C.ar      1 <0>        -0.1023
     14 C14         5.1024   -4.2967   -3.1965 C.ar      1 <0>        -0.1132
     15 C15         6.0175   -3.5781   -3.9382 C.ar      1 <0>        -0.0805
     16 C16         6.6137   -2.4407   -3.3929 C.ar      1 <0>        -0.0119
     17 C17         6.2762   -2.0344   -2.1011 C.ar      1 <0>        -0.0889
     18 C18         7.5962   -1.6652   -4.1831 C.2       1 <0>        -0.1210
     19 C19         7.1956   -1.0120   -5.3400 C.2       1 <0>         0.2104
     20 N1          8.1065   -0.2931   -6.0725 N.pl3     1 <0>        -0.8314
     21 S1          5.5173   -1.1057   -5.8684 S.3       1 <0>         0.0448
     22 C20         5.5961   -2.0076   -7.3800 C.ar      1 <0>        -0.1951
     23 C21         6.8000   -2.5513   -7.8039 C.ar      1 <0>        -0.0758
     24 C22         6.8592   -3.2588   -8.9898 C.ar      1 <0>        -0.1601
     25 C23         5.7212   -3.4267   -9.7573 C.ar      1 <0>        -0.0635
     26 C24         4.5171   -2.8884   -9.3429 C.ar      1 <0>        -0.1830
     27 C25         4.4469   -2.1819   -8.1515 C.ar      1 <0>         0.2492
     28 N2          3.2283   -1.6412   -7.7271 N.pl3     1 <0>        -0.8698
     29 C26         8.9602   -1.5891   -3.7536 C.1       1 <0>         0.2617
     30 N3         10.0422   -1.5287   -3.4129 N.1       1 <0>        -0.4294
     31 O1          4.8871   -3.4802    0.8703 O.3       1 <0>        -0.5449
     32 H1         -0.9232    2.3007   -0.1636 H         1 <0>         0.1232
     33 H2          1.1786    3.5703   -0.2632 H         1 <0>         0.1233
     34 H3          3.3300    2.4290   -0.2232 H         1 <0>         0.1269
     35 H4          4.6151    0.3098   -0.1168 H         1 <0>         0.1276
     36 H5          2.5285   -3.3916    0.1172 H         1 <0>         0.1198
     37 H6          0.3772   -2.2503    0.0759 H         1 <0>         0.1287
     38 H7         -0.9078   -0.1313   -0.0303 H         1 <0>         0.1269
     39 H8          5.7803   -1.6729    0.4180 H         1 <0>         0.1156
     40 H9          4.0595   -4.4577   -1.3379 H         1 <0>         0.1177
     41 H10         4.6402   -5.1773   -3.6174 H         1 <0>         0.1255
     42 H11         6.2720   -3.8957   -4.9386 H         1 <0>         0.1222
     43 H12         6.7315   -1.1527   -1.6748 H         1 <0>         0.1219
     44 H13         9.0123   -0.1804   -5.7442 H         1 <0>         0.4036
     45 H14         7.8446    0.1024   -6.9186 H         1 <0>         0.4108
     46 H15         7.6909   -2.4215   -7.2074 H         1 <0>         0.1229
     47 H16         7.7973   -3.6814   -9.3183 H         1 <0>         0.1241
     48 H17         5.7732   -3.9798  -10.6835 H         1 <0>         0.1269
     49 H18         3.6304   -3.0215   -9.9449 H         1 <0>         0.1285
     50 H19         3.1816   -1.1442   -6.8954 H         1 <0>         0.3994
     51 H20         2.4302   -1.7633   -8.2647 H         1 <0>         0.4038
     52 H21         4.2122   -4.1107    0.5838 H         1 <0>         0.3732
@<TRIPOS>BOND
     1    1   10 ar
     2    1    2 ar
     3    1   32 1
     4    2    3 ar
     5    2   33 1
     6    3    4 ar
     7    3   34 1
     8    4    9 ar
     9    4    5 ar
    10    5    6 ar
    11    5   35 1
    12    6    7 ar
    13    6   11 1
    14    7    8 ar
    15    7   36 1
    16    8    9 ar
    17    8   37 1
    18    9   10 ar
    19   10   38 1
    20   11   12 1
    21   11   31 1
    22   11   39 1
    23   12   17 ar
    24   12   13 ar
    25   13   14 ar
    26   13   40 1
    27   14   15 ar
    28   14   41 1
    29   15   16 ar
    30   15   42 1
    31   16   17 ar
    32   16   18 1
    33   17   43 1
    34   18   19 2
    35   18   29 1
    36   19   20 1
    37   19   21 1
    38   20   44 1
    39   20   45 1
    40   21   22 1
    41   22   27 ar
    42   22   23 ar
    43   23   24 ar
    44   23   46 1
    45   24   25 ar
    46   24   47 1
    47   25   26 ar
    48   25   48 1
    49   26   27 ar
    50   26   49 1
    51   27   28 1
    52   28   50 1
    53   28   51 1
    54   29   30 3
    55   31   52 1
@<TRIPOS>MOLECULE
CHEMBL287959__2
   52    55     0     0     0
SMALL
USER_CHARGES

@<TRIPOS>ATOM
      1 C1         -0.3757    0.9995    0.4922 C.ar      1 <0>        -0.1142
      2 C2          0.7604    1.8068    0.4768 C.ar      1 <0>        -0.1148
      3 C3          2.0051    1.2633    0.3905 C.ar      1 <0>        -0.1053
      4 C4          2.1507   -0.1325    0.3160 C.ar      1 <0>        -0.0488
      5 C5          3.4195   -0.7303    0.2264 C.ar      1 <0>        -0.0898
      6 C6          3.5219   -2.0856    0.1564 C.ar      1 <0>        -0.1096
      7 C7          2.3859   -2.8928    0.1722 C.ar      1 <0>        -0.1068
      8 C8          1.1412   -2.3493    0.2580 C.ar      1 <0>        -0.0994
      9 C9          0.9956   -0.9534    0.3321 C.ar      1 <0>        -0.0508
     10 C10        -0.2732   -0.3558    0.4217 C.ar      1 <0>        -0.1073
     11 C11         4.8841   -2.7229    0.0599 C.3       1 <0>         0.1895
     12 C12         5.3008   -3.2257    1.4181 C.ar      1 <0>        -0.1058
     13 C13         4.8964   -4.4785    1.8445 C.ar      1 <0>        -0.1055
     14 C14         5.2747   -4.9473    3.0899 C.ar      1 <0>        -0.1096
     15 C15         6.0585   -4.1672    3.9151 C.ar      1 <0>        -0.1112
     16 C16         6.4700   -2.9033    3.4909 C.ar      1 <0>        -0.0172
     17 C17         6.0893   -2.4384    2.2313 C.ar      1 <0>        -0.0877
     18 C18         7.3109   -2.0612    4.3711 C.2       1 <0>        -0.1209
     19 C19         8.5956   -2.4690    4.7007 C.2       1 <0>         0.2161
     20 N1          9.0865   -3.6532    4.2107 N.pl3     1 <0>        -0.8256
     21 S1          9.5966   -1.4666    5.7484 S.3       1 <0>         0.0174
     22 C20        10.9091   -0.9331    4.7008 C.ar      1 <0>        -0.1924
     23 C21        10.8866   -1.2372    3.3475 C.ar      1 <0>        -0.0731
     24 C22        11.9170   -0.8172    2.5276 C.ar      1 <0>        -0.1605
     25 C23        12.9727   -0.0940    3.0520 C.ar      1 <0>        -0.0632
     26 C24        13.0036    0.2136    4.3995 C.ar      1 <0>        -0.1837
     27 C25        11.9712   -0.1987    5.2288 C.ar      1 <0>         0.2482
     28 N2         11.9975    0.1165    6.5916 N.pl3     1 <0>        -0.8701
     29 C26         6.7987   -0.8255    4.8824 C.1       1 <0>         0.2695
     30 N3          6.3923    0.1547    5.2880 N.1       1 <0>        -0.4234
     31 O1          4.8342   -3.8168   -0.8582 O.3       1 <0>        -0.5443
     32 H1         -1.3517    1.4560    0.5657 H         1 <0>         0.1242
     33 H2          0.6512    2.8797    0.5339 H         1 <0>         0.1244
     34 H3          2.8764    1.9013    0.3788 H         1 <0>         0.1276
     35 H4          4.3086   -0.1173    0.2129 H         1 <0>         0.1280
     36 H5          2.4950   -3.9658    0.1150 H         1 <0>         0.1193
     37 H6          0.2698   -2.9873    0.2688 H         1 <0>         0.1293
     38 H7         -1.1623   -0.9688    0.4350 H         1 <0>         0.1276
     39 H8          5.6060   -1.9859   -0.2919 H         1 <0>         0.1175
     40 H9          4.2825   -5.0928    1.2025 H         1 <0>         0.1205
     41 H10         4.9555   -5.9258    3.4171 H         1 <0>         0.1283
     42 H11         6.3526   -4.5339    4.8874 H         1 <0>         0.1272
     43 H12         6.4077   -1.4625    1.8956 H         1 <0>         0.1254
     44 H13         8.5129   -4.2381    3.6912 H         1 <0>         0.4073
     45 H14        10.0071   -3.9052    4.3837 H         1 <0>         0.4100
     46 H15        10.0640   -1.8023    2.9346 H         1 <0>         0.1251
     47 H16        11.8978   -1.0548    1.4742 H         1 <0>         0.1253
     48 H17        13.7756    0.2311    2.4070 H         1 <0>         0.1275
     49 H18        13.8297    0.7785    4.8056 H         1 <0>         0.1289
     50 H19        11.2765   -0.1757    7.1709 H         1 <0>         0.3992
     51 H20        12.7367    0.6272    6.9571 H         1 <0>         0.4040
     52 H21         4.2108   -4.5124   -0.6078 H         1 <0>         0.3734
@<TRIPOS>BOND
     1    1   10 ar
     2    1    2 ar
     3    1   32 1
     4    2    3 ar
     5    2   33 1
     6    3    4 ar
     7    3   34 1
     8    4    9 ar
     9    4    5 ar
    10    5    6 ar
    11    5   35 1
    12    6    7 ar
    13    6   11 1
    14    7    8 ar
    15    7   36 1
    16    8    9 ar
    17    8   37 1
    18    9   10 ar
    19   10   38 1
    20   11   12 1
    21   11   31 1
    22   11   39 1
    23   12   17 ar
    24   12   13 ar
    25   13   14 ar
    26   13   40 1
    27   14   15 ar
    28   14   41 1
    29   15   16 ar
    30   15   42 1
    31   16   17 ar
    32   16   18 1
    33   17   43 1
    34   18   19 2
    35   18   29 1
    36   19   20 1
    37   19   21 1
    38   20   44 1
    39   20   45 1
    40   21   22 1
    41   22   27 ar
    42   22   23 ar
    43   23   24 ar
    44   23   46 1
    45   24   25 ar
    46   24   47 1
    47   25   26 ar
    48   25   48 1
    49   26   27 ar
    50   26   49 1
    51   27   28 1
    52   28   50 1
    53   28   51 1
    54   29   30 3
    55   31   52 1
@<TRIPOS>MOLECULE
CHEMBL287959__3
   52    55     0     0     0
SMALL
USER_CHARGES

@<TRIPOS>ATOM
      1 C1          0.3719    1.6984   -0.3556 C.ar      1 <0>        -0.1153
      2 C2          1.5758    2.3973   -0.2866 C.ar      1 <0>        -0.1154
      3 C3          2.7668    1.7397   -0.2508 C.ar      1 <0>        -0.1058
      4 C4          2.7866    0.3348   -0.2833 C.ar      1 <0>        -0.0486
      5 C5          3.9966   -0.3791   -0.2475 C.ar      1 <0>        -0.0917
      6 C6          3.9770   -1.7395   -0.2803 C.ar      1 <0>        -0.1071
      7 C7          2.7731   -2.4384   -0.3490 C.ar      1 <0>        -0.1058
      8 C8          1.5821   -1.7807   -0.3853 C.ar      1 <0>        -0.1000
      9 C9          1.5624   -0.3758   -0.3531 C.ar      1 <0>        -0.0513
     10 C10         0.3524    0.3380   -0.3889 C.ar      1 <0>        -0.1069
     11 C11         5.2765   -2.5017   -0.2423 C.3       1 <0>         0.1903
     12 C12         5.5250   -3.0013    1.1576 C.ar      1 <0>        -0.1114
     13 C13         4.9693   -4.1990    1.5720 C.ar      1 <0>        -0.1031
     14 C14         5.1926   -4.6646    2.8555 C.ar      1 <0>        -0.1130
     15 C15         5.9718   -3.9363    3.7309 C.ar      1 <0>        -0.0811
     16 C16         6.5354   -2.7282    3.3190 C.ar      1 <0>        -0.0117
     17 C17         6.3105   -2.2667    2.0213 C.ar      1 <0>        -0.0892
     18 C18         7.3723   -1.9419    4.2530 C.2       1 <0>        -0.1212
     19 C19         8.5796   -2.4563    4.7038 C.2       1 <0>         0.2104
     20 N1          9.3555   -1.7273    5.5696 N.pl3     1 <0>        -0.8314
     21 S1          9.1165   -4.0455    4.1645 S.3       1 <0>         0.0452
     22 C20         9.0868   -5.0250    5.6288 C.ar      1 <0>        -0.1952
     23 C21         8.5836   -4.4972    6.8089 C.ar      1 <0>        -0.0759
     24 C22         8.5609   -5.2677    7.9562 C.ar      1 <0>        -0.1603
     25 C23         9.0392   -6.5650    7.9325 C.ar      1 <0>        -0.0635
     26 C24         9.5425   -7.0994    6.7611 C.ar      1 <0>        -0.1831
     27 C25         9.5640   -6.3357    5.6036 C.ar      1 <0>         0.2494
     28 N2         10.0675   -6.8763    4.4155 N.pl3     1 <0>        -0.8697
     29 C26         6.9360   -0.6503    4.6913 C.1       1 <0>         0.2617
     30 N3          6.5899    0.3743    5.0390 N.1       1 <0>        -0.4298
     31 O1          5.2037   -3.6123   -1.1385 O.3       1 <0>        -0.5446
     32 H1         -0.5596    2.2445   -0.3786 H         1 <0>         0.1238
     33 H2          1.5634    3.4769   -0.2614 H         1 <0>         0.1238
     34 H3          3.6918    2.2945   -0.1980 H         1 <0>         0.1269
     35 H4          4.9371    0.1490   -0.1946 H         1 <0>         0.1274
     36 H5          2.7854   -3.5180   -0.3742 H         1 <0>         0.1199
     37 H6          0.6571   -2.3355   -0.4389 H         1 <0>         0.1290
     38 H7         -0.5881   -0.1902   -0.4421 H         1 <0>         0.1274
     39 H8          6.0921   -1.8444   -0.5436 H         1 <0>         0.1162
     40 H9          4.3583   -4.7726    0.8907 H         1 <0>         0.1181
     41 H10         4.7558   -5.5999    3.1730 H         1 <0>         0.1256
     42 H11         6.1449   -4.3005    4.7328 H         1 <0>         0.1221
     43 H12         6.7470   -1.3341    1.6953 H         1 <0>         0.1216
     44 H13         9.0969   -0.8236    5.8093 H         1 <0>         0.4035
     45 H14        10.1626   -2.1156    5.9420 H         1 <0>         0.4109
     46 H15         8.2098   -3.4842    6.8312 H         1 <0>         0.1227
     47 H16         8.1688   -4.8551    8.8740 H         1 <0>         0.1239
     48 H17         9.0198   -7.1624    8.8320 H         1 <0>         0.1268
     49 H18         9.9153   -8.1130    6.7463 H         1 <0>         0.1286
     50 H19        10.0852   -6.3397    3.6077 H         1 <0>         0.3997
     51 H20        10.3990   -7.7878    4.3996 H         1 <0>         0.4040
     52 H21         4.4984   -4.2402   -0.9303 H         1 <0>         0.3732
@<TRIPOS>BOND
     1    1   10 ar
     2    1    2 ar
     3    1   32 1
     4    2    3 ar
     5    2   33 1
     6    3    4 ar
     7    3   34 1
     8    4    9 ar
     9    4    5 ar
    10    5    6 ar
    11    5   35 1
    12    6    7 ar
    13    6   11 1
    14    7    8 ar
    15    7   36 1
    16    8    9 ar
    17    8   37 1
    18    9   10 ar
    19   10   38 1
    20   11   12 1
    21   11   31 1
    22   11   39 1
    23   12   17 ar
    24   12   13 ar
    25   13   14 ar
    26   13   40 1
    27   14   15 ar
    28   14   41 1
    29   15   16 ar
    30   15   42 1
    31   16   17 ar
    32   16   18 1
    33   17   43 1
    34   18   19 2
    35   18   29 1
    36   19   20 1
    37   19   21 1
    38   20   44 1
    39   20   45 1
    40   21   22 1
    41   22   27 ar
    42   22   23 ar
    43   23   24 ar
    44   23   46 1
    45   24   25 ar
    46   24   47 1
    47   25   26 ar
    48   25   48 1
    49   26   27 ar
    50   26   49 1
    51   27   28 1
    52   28   50 1
    53   28   51 1
    54   29   30 3
    55   31   52 1
@<TRIPOS>MOLECULE
CHEMBL201384
   54    58     0     0     0
SMALL
USER_CHARGES

@<TRIPOS>ATOM
      1 C1         -0.6026    1.7623    0.3700 C.3       1 <0>        -0.0833
      2 C2         -0.5380    0.2643    0.2179 C.2       1 <0>        -0.1235
      3 C3         -0.8353   -0.4688   -0.9355 C.2       1 <0>         0.1323
      4 C4         -0.6498   -1.7890   -0.6507 C.2       1 <0>         0.0036
      5 N1         -0.2461   -1.9104    0.6420 N.pl3     1 <0>        -0.2415
      6 C5         -0.1668   -0.6484    1.1926 C.2       1 <0>        -0.0284
      7 C6          0.2390   -0.4994    2.5361 C.2       1 <0>         0.3429
      8 C7          0.5540   -1.6487    3.2726 C.2       1 <0>        -0.1580
      9 C8          0.4575   -2.9169    2.6542 C.2       1 <0>         0.1800
     10 N2          0.0736   -3.0328    1.4161 N.2       1 <0>        -0.2686
     11 C9          0.9703   -1.5403    4.6385 C.1       1 <0>         0.2631
     12 N3          1.3006   -1.4544    5.7220 N.1       1 <0>        -0.4056
     13 N4          0.3242    0.7534    3.1126 N.pl3     1 <0>        -0.6859
     14 C10         1.2408    1.6890    2.6206 C.ar      1 <0>         0.1642
     15 C11         2.2013    1.3007    1.6954 C.ar      1 <0>        -0.1259
     16 C12         3.1051    2.2247    1.2100 C.ar      1 <0>        -0.1022
     17 C13         3.0543    3.5408    1.6464 C.ar      1 <0>         0.0904
     18 C14         2.0955    3.9294    2.5709 C.ar      1 <0>        -0.1510
     19 C15         1.1870    3.0080    3.0526 C.ar      1 <0>        -0.1295
     20 O1          3.9450    4.4500    1.1683 O.3       1 <0>        -0.2591
     21 C16         3.9315    5.6988    1.7038 C.ar      1 <0>         0.0848
     22 C17         4.4767    5.9221    2.9601 C.ar      1 <0>        -0.1345
     23 C18         4.4622    7.1926    3.5021 C.ar      1 <0>        -0.1049
     24 C19         3.9046    8.2413    2.7940 C.ar      1 <0>        -0.1189
     25 C20         3.3602    8.0214    1.5421 C.ar      1 <0>        -0.1048
     26 C21         3.3777    6.7540    0.9929 C.ar      1 <0>        -0.1229
     27 N5         -1.2520    0.0611   -2.1683 N.pl3     1 <0>        -0.6652
     28 C22        -1.6582   -0.7945   -3.1946 C.ar      1 <0>         0.1807
     29 C23        -2.3557   -1.9584   -2.8958 C.ar      1 <0>        -0.1701
     30 C24        -2.7561   -2.8019   -3.9132 C.ar      1 <0>        -0.0870
     31 C25        -2.4633   -2.4895   -5.2282 C.ar      1 <0>        -0.1510
     32 C26        -1.7689   -1.3321   -5.5292 C.ar      1 <0>        -0.0866
     33 C27        -1.3707   -0.4809   -4.5173 C.ar      1 <0>        -0.1613
     34 H1          0.3755    2.1920    0.1539 H         1 <0>         0.0726
     35 H2         -1.3387    2.1666   -0.3249 H         1 <0>         0.0624
     36 H3         -0.8915    2.0117    1.3910 H         1 <0>         0.0695
     37 H4         -0.7996   -2.6065   -1.3404 H         1 <0>         0.1841
     38 H5          0.7000   -3.8039    3.2205 H         1 <0>         0.2027
     39 H6         -0.2514    0.9842    3.8584 H         1 <0>         0.4208
     40 H7          2.2414    0.2761    1.3561 H         1 <0>         0.1280
     41 H8          3.8520    1.9229    0.4906 H         1 <0>         0.1361
     42 H9          2.0568    4.9540    2.9104 H         1 <0>         0.1326
     43 H10         0.4377    3.3117    3.7686 H         1 <0>         0.1301
     44 H11         4.9117    5.1033    3.5139 H         1 <0>         0.1298
     45 H12         4.8864    7.3670    4.4798 H         1 <0>         0.1302
     46 H13         3.8939    9.2338    3.2196 H         1 <0>         0.1287
     47 H14         2.9250    8.8421    0.9912 H         1 <0>         0.1316
     48 H15         2.9565    6.5836    0.0132 H         1 <0>         0.1321
     49 H16        -1.2576    1.0212   -2.3065 H         1 <0>         0.4140
     50 H17        -2.5840   -2.2034   -1.8691 H         1 <0>         0.1281
     51 H18        -3.2984   -3.7068   -3.6817 H         1 <0>         0.1243
     52 H19        -2.7774   -3.1511   -6.0219 H         1 <0>         0.1219
     53 H20        -1.5413   -1.0915   -6.5572 H         1 <0>         0.1245
     54 H21        -0.8323    0.4251   -4.7534 H         1 <0>         0.1238
@<TRIPOS>BOND
     1    1    2 1
     2    1   34 1
     3    1   35 1
     4    1   36 1
     5    2    6 2
     6    2    3 1
     7    3    4 2
     8    3   27 1
     9    4    5 1
    10    4   37 1
    11    5   10 1
    12    5    6 1
    13    6    7 1
    14    7    8 2
    15    7   13 1
    16    8    9 1
    17    8   11 1
    18    9   10 2
    19    9   38 1
    20   11   12 3
    21   13   14 1
    22   13   39 1
    23   14   19 ar
    24   14   15 ar
    25   15   16 ar
    26   15   40 1
    27   16   17 ar
    28   16   41 1
    29   17   18 ar
    30   17   20 1
    31   18   19 ar
    32   18   42 1
    33   19   43 1
    34   20   21 1
    35   21   26 ar
    36   21   22 ar
    37   22   23 ar
    38   22   44 1
    39   23   24 ar
    40   23   45 1
    41   24   25 ar
    42   24   46 1
    43   25   26 ar
    44   25   47 1
    45   26   48 1
    46   27   28 1
    47   27   49 1
    48   28   33 ar
    49   28   29 ar
    50   29   30 ar
    51   29   50 1
    52   30   31 ar
    53   30   51 1
    54   31   32 ar
    55   31   52 1
    56   32   33 ar
    57   32   53 1
    58   33   54 1
@<TRIPOS>MOLECULE
CHEMBL485238
   67    71     0     0     0
SMALL
USER_CHARGES

@<TRIPOS>ATOM
      1 C1          8.1856   -2.2805    3.1004 C.3       1 <0>         0.0691
      2 N1          6.9631   -1.7133    3.6748 N.pl3     1 <0>        -0.4473
      3 C2          6.7405   -0.3905    3.9829 C.2       1 <0>        -0.0433
      4 C3          5.4963   -0.3088    4.4849 C.2       1 <0>        -0.0192
      5 N2          4.9606   -1.5406    4.4896 N.2       1 <0>        -0.4772
      6 C4          5.8297   -2.3937    3.9997 C.2       1 <0>         0.1724
      7 S1          5.5744   -4.1257    3.8009 S.3       1 <0>         0.0921
      8 C5          3.9968   -4.4108    4.5321 C.ar      1 <0>        -0.1653
      9 C6          2.8865   -4.6281    3.7260 C.ar      1 <0>         0.0015
     10 C7          1.6506   -4.8514    4.2987 C.ar      1 <0>        -0.1807
     11 C8          1.5164   -4.8588    5.6815 C.ar      1 <0>         0.2436
     12 C9          2.6258   -4.6411    6.4884 C.ar      1 <0>        -0.1842
     13 C10         3.8640   -4.4238    5.9159 C.ar      1 <0>         0.0714
     14 Cl1         5.2525   -4.1598    6.9239 Cl        1 <0>        -0.0408
     15 N3          0.2631   -5.0852    6.2615 N.pl3     1 <0>        -0.6999
     16 C11         0.1005   -4.9548    7.6252 C.ar      1 <0>         0.2588
     17 C12         0.3624   -6.0362    8.4990 C.ar      1 <0>        -0.1038
     18 C13         0.7966   -7.2755    8.0040 C.ar      1 <0>        -0.0724
     19 C14         1.0429   -8.3015    8.8613 C.ar      1 <0>        -0.1090
     20 C15         0.8667   -8.1358   10.2450 C.ar      1 <0>        -0.0428
     21 C16         0.4385   -6.9227   10.7603 C.ar      1 <0>        -0.0723
     22 C17         0.1806   -5.8533    9.8913 C.ar      1 <0>         0.1509
     23 N4         -0.2338   -4.6705   10.3692 N.ar      1 <0>        -0.4606
     24 C18        -0.4832   -3.6539    9.5840 C.ar      1 <0>         0.1880
     25 C19        -0.3246   -3.7433    8.1917 C.ar      1 <0>        -0.0707
     26 C20        -0.5988   -2.6117    7.3582 C.1       1 <0>         0.2420
     27 N5         -0.8164   -1.7140    6.6969 N.1       1 <0>        -0.3742
     28 C21         1.1397   -9.2643   11.1585 C.2       1 <0>        -0.0768
     29 C22         1.5494  -10.4279   10.6712 C.2       1 <0>        -0.1708
     30 C23         1.8279  -11.5790   11.6031 C.3       1 <0>        -0.1120
     31 C24         1.0059  -12.7950   11.1713 C.3       1 <0>        -0.0072
     32 N6          1.2773  -13.9172   12.0797 N.4       1 <0>        -0.3835
     33 C25         2.6823  -14.3215   11.9492 C.3       1 <0>        -0.0127
     34 C26         2.9914  -15.4361   12.9510 C.3       1 <0>        -0.1462
     35 C27         2.0845  -16.6368   12.6664 C.3       1 <0>        -0.1398
     36 C28         0.6223  -16.1865   12.7321 C.3       1 <0>        -0.1466
     37 C29         0.4009  -15.0441   11.7383 C.3       1 <0>        -0.0065
     38 H1          8.1201   -2.2584    2.0126 H         1 <0>         0.0816
     39 H2          9.0454   -1.6942    3.4246 H         1 <0>         0.0915
     40 H3          8.3009   -3.3110    3.4365 H         1 <0>         0.0886
     41 H4          7.4339    0.4264    3.8477 H         1 <0>         0.1793
     42 H5          5.0103    0.5933    4.8262 H         1 <0>         0.1717
     43 H6          2.9903   -4.6221    2.6510 H         1 <0>         0.1470
     44 H7          0.7876   -5.0200    3.6717 H         1 <0>         0.1396
     45 H8          2.5213   -4.6465    7.5633 H         1 <0>         0.1334
     46 H9         -0.4912   -5.3338    5.7047 H         1 <0>         0.4237
     47 H10         0.9347   -7.4143    6.9419 H         1 <0>         0.1372
     48 H11         1.3769   -9.2531    8.4748 H         1 <0>         0.1328
     49 H12         0.3043   -6.8019   11.8251 H         1 <0>         0.1470
     50 H13        -0.8147   -2.7221   10.0178 H         1 <0>         0.1790
     51 H14         1.0057   -9.1418   12.2231 H         1 <0>         0.1284
     52 H15         1.6834  -10.5504    9.6066 H         1 <0>         0.1277
     53 H16         2.8888  -11.8265   11.5678 H         1 <0>         0.0973
     54 H17         1.5540  -11.2978   12.6199 H         1 <0>         0.0915
     55 H18        -0.0551  -12.5475   11.2066 H         1 <0>         0.1328
     56 H19         1.2797  -13.0763   10.1545 H         1 <0>         0.1308
     57 H20         2.8634  -14.6829   10.9369 H         1 <0>         0.1287
     58 H21         3.3264  -13.4651   12.1489 H         1 <0>         0.1315
     59 H22         4.0345  -15.7361   12.8513 H         1 <0>         0.1118
     60 H23         2.8109  -15.0756   13.9637 H         1 <0>         0.0875
     61 H24         2.3007  -17.0294   11.6728 H         1 <0>         0.0816
     62 H25         2.2611  -17.4118   13.4122 H         1 <0>         0.0941
     63 H26        -0.0280  -17.0229   12.4758 H         1 <0>         0.1120
     64 H27         0.3926  -15.8415   13.7402 H         1 <0>         0.0875
     65 H28        -0.6392  -14.7212   11.7824 H         1 <0>         0.1299
     66 H29         0.6307  -15.3901   10.7306 H         1 <0>         0.1281
     67 H30         1.0991  -13.6297   13.0303 H         1 <0>         0.4223
@<TRIPOS>BOND
     1    1    2 1
     2    1   38 1
     3    1   39 1
     4    1   40 1
     5    2    6 1
     6    2    3 1
     7    3    4 2
     8    3   41 1
     9    4    5 1
    10    4   42 1
    11    5    6 2
    12    6    7 1
    13    7    8 1
    14    8   13 ar
    15    8    9 ar
    16    9   10 ar
    17    9   43 1
    18   10   11 ar
    19   10   44 1
    20   11   12 ar
    21   11   15 1
    22   12   13 ar
    23   12   45 1
    24   13   14 1
    25   15   16 1
    26   15   46 1
    27   16   25 ar
    28   16   17 ar
    29   17   22 ar
    30   17   18 ar
    31   18   19 ar
    32   18   47 1
    33   19   20 ar
    34   19   48 1
    35   20   21 ar
    36   20   28 1
    37   21   22 ar
    38   21   49 1
    39   22   23 ar
    40   23   24 ar
    41   24   25 ar
    42   24   50 1
    43   25   26 1
    44   26   27 3
    45   28   29 2
    46   28   51 1
    47   29   30 1
    48   29   52 1
    49   30   31 1
    50   30   53 1
    51   30   54 1
    52   31   32 1
    53   31   55 1
    54   31   56 1
    55   32   37 1
    56   32   33 1
    57   32   67 1
    58   33   34 1
    59   33   57 1
    60   33   58 1
    61   34   35 1
    62   34   59 1
    63   34   60 1
    64   35   36 1
    65   35   61 1
    66   35   62 1
    67   36   37 1
    68   36   63 1
    69   36   64 1
    70   37   65 1
    71   37   66 1
@<TRIPOS>MOLECULE
CHEMBL521502
   64    68     0     0     0
SMALL
USER_CHARGES

@<TRIPOS>ATOM
      1 C1          8.1856   -2.2805    3.1004 C.3       1 <0>         0.0691
      2 N1          6.9631   -1.7133    3.6748 N.pl3     1 <0>        -0.4473
      3 C2          6.7405   -0.3905    3.9829 C.2       1 <0>        -0.0433
      4 C3          5.4963   -0.3088    4.4849 C.2       1 <0>        -0.0192
      5 N2          4.9606   -1.5406    4.4896 N.2       1 <0>        -0.4772
      6 C4          5.8297   -2.3937    3.9997 C.2       1 <0>         0.1724
      7 S1          5.5744   -4.1257    3.8009 S.3       1 <0>         0.0922
      8 C5          3.9968   -4.4108    4.5321 C.ar      1 <0>        -0.1652
      9 C6          2.8865   -4.6281    3.7260 C.ar      1 <0>         0.0015
     10 C7          1.6506   -4.8514    4.2987 C.ar      1 <0>        -0.1806
     11 C8          1.5164   -4.8588    5.6815 C.ar      1 <0>         0.2435
     12 C9          2.6258   -4.6411    6.4884 C.ar      1 <0>        -0.1842
     13 C10         3.8640   -4.4238    5.9159 C.ar      1 <0>         0.0714
     14 Cl1         5.2525   -4.1598    6.9239 Cl        1 <0>        -0.0407
     15 N3          0.2631   -5.0852    6.2615 N.pl3     1 <0>        -0.7000
     16 C11         0.1005   -4.9548    7.6252 C.ar      1 <0>         0.2590
     17 C12         0.3624   -6.0362    8.4990 C.ar      1 <0>        -0.1039
     18 C13         0.7966   -7.2755    8.0040 C.ar      1 <0>        -0.0723
     19 C14         1.0429   -8.3015    8.8613 C.ar      1 <0>        -0.1092
     20 C15         0.8667   -8.1358   10.2450 C.ar      1 <0>        -0.0427
     21 C16         0.4385   -6.9227   10.7603 C.ar      1 <0>        -0.0725
     22 C17         0.1806   -5.8533    9.8913 C.ar      1 <0>         0.1509
     23 N4         -0.2338   -4.6705   10.3692 N.ar      1 <0>        -0.4608
     24 C18        -0.4832   -3.6539    9.5840 C.ar      1 <0>         0.1881
     25 C19        -0.3246   -3.7433    8.1917 C.ar      1 <0>        -0.0707
     26 C20        -0.5988   -2.6117    7.3582 C.1       1 <0>         0.2419
     27 N5         -0.8164   -1.7140    6.6969 N.1       1 <0>        -0.3741
     28 C21         1.1397   -9.2643   11.1585 C.2       1 <0>        -0.0773
     29 C22         1.5494  -10.4279   10.6712 C.2       1 <0>        -0.1706
     30 C23         1.8279  -11.5790   11.6031 C.3       1 <0>        -0.1108
     31 C24         1.0059  -12.7950   11.1713 C.3       1 <0>        -0.0027
     32 N6          1.2773  -13.9172   12.0797 N.4       1 <0>        -0.3955
     33 C25         0.7213  -13.6315   13.4270 C.3       1 <0>        -0.0079
     34 C26         0.5743  -15.0399   14.0558 C.3       1 <0>        -0.1462
     35 C27         0.1262  -15.9083   12.8579 C.3       1 <0>        -0.1458
     36 C28         0.5838  -15.1351   11.6072 C.3       1 <0>        -0.0084
     37 H1          8.1201   -2.2584    2.0126 H         1 <0>         0.0816
     38 H2          9.0454   -1.6942    3.4246 H         1 <0>         0.0915
     39 H3          8.3009   -3.3110    3.4365 H         1 <0>         0.0886
     40 H4          7.4339    0.4264    3.8477 H         1 <0>         0.1793
     41 H5          5.0103    0.5933    4.8262 H         1 <0>         0.1716
     42 H6          2.9903   -4.6221    2.6510 H         1 <0>         0.1470
     43 H7          0.7876   -5.0200    3.6717 H         1 <0>         0.1396
     44 H8          2.5213   -4.6465    7.5633 H         1 <0>         0.1334
     45 H9         -0.4912   -5.3338    5.7047 H         1 <0>         0.4237
     46 H10         0.9347   -7.4143    6.9419 H         1 <0>         0.1373
     47 H11         1.3769   -9.2531    8.4748 H         1 <0>         0.1329
     48 H12         0.3043   -6.8019   11.8251 H         1 <0>         0.1469
     49 H13        -0.8147   -2.7221   10.0178 H         1 <0>         0.1790
     50 H14         1.0057   -9.1418   12.2231 H         1 <0>         0.1280
     51 H15         1.6834  -10.5504    9.6066 H         1 <0>         0.1277
     52 H16         2.8888  -11.8265   11.5678 H         1 <0>         0.0969
     53 H17         1.5540  -11.2978   12.6199 H         1 <0>         0.0905
     54 H18        -0.0551  -12.5475   11.2066 H         1 <0>         0.1308
     55 H19         1.2797  -13.0763   10.1545 H         1 <0>         0.1312
     56 H20         1.4134  -13.0214   14.0074 H         1 <0>         0.1352
     57 H21        -0.2497  -13.1428   13.3468 H         1 <0>         0.1340
     58 H22         1.5294  -15.3883   14.4490 H         1 <0>         0.0980
     59 H23        -0.1870  -15.0365   14.8359 H         1 <0>         0.1165
     60 H24         0.6092  -16.8846   12.8968 H         1 <0>         0.1050
     61 H25        -0.9579  -16.0213   12.8572 H         1 <0>         0.1036
     62 H26        -0.2812  -14.8594   11.0039 H         1 <0>         0.1305
     63 H27         1.2683  -15.7484   11.0212 H         1 <0>         0.1320
     64 H28         2.2706  -14.0838   12.1403 H         1 <0>         0.4268
@<TRIPOS>BOND
     1    1    2 1
     2    1   37 1
     3    1   38 1
     4    1   39 1
     5    2    6 1
     6    2    3 1
     7    3    4 2
     8    3   40 1
     9    4    5 1
    10    4   41 1
    11    5    6 2
    12    6    7 1
    13    7    8 1
    14    8   13 ar
    15    8    9 ar
    16    9   10 ar
    17    9   42 1
    18   10   11 ar
    19   10   43 1
    20   11   12 ar
    21   11   15 1
    22   12   13 ar
    23   12   44 1
    24   13   14 1
    25   15   16 1
    26   15   45 1
    27   16   25 ar
    28   16   17 ar
    29   17   22 ar
    30   17   18 ar
    31   18   19 ar
    32   18   46 1
    33   19   20 ar
    34   19   47 1
    35   20   21 ar
    36   20   28 1
    37   21   22 ar
    38   21   48 1
    39   22   23 ar
    40   23   24 ar
    41   24   25 ar
    42   24   49 1
    43   25   26 1
    44   26   27 3
    45   28   29 2
    46   28   50 1
    47   29   30 1
    48   29   51 1
    49   30   31 1
    50   30   52 1
    51   30   53 1
    52   31   32 1
    53   31   54 1
    54   31   55 1
    55   32   36 1
    56   32   33 1
    57   32   64 1
    58   33   34 1
    59   33   56 1
    60   33   57 1
    61   34   35 1
    62   34   58 1
    63   34   59 1
    64   35   36 1
    65   35   60 1
    66   35   61 1
    67   36   62 1
    68   36   63 1
@<TRIPOS>MOLECULE
CHEMBL485237
   61    65     0     0     0
SMALL
USER_CHARGES

@<TRIPOS>ATOM
      1 C1          8.1856   -2.2805    3.1004 C.3       1 <0>         0.0697
      2 N1          6.9631   -1.7133    3.6748 N.pl3     1 <0>        -0.4482
      3 C2          6.7405   -0.3905    3.9829 C.2       1 <0>        -0.0466
      4 C3          5.4963   -0.3088    4.4849 C.2       1 <0>        -0.0191
      5 N2          4.9606   -1.5406    4.4896 N.2       1 <0>        -0.4767
      6 C4          5.8297   -2.3937    3.9997 C.2       1 <0>         0.1749
      7 S1          5.5744   -4.1257    3.8009 S.3       1 <0>         0.0918
      8 C5          3.9968   -4.4108    4.5321 C.ar      1 <0>        -0.1683
      9 C6          2.8865   -4.6281    3.7260 C.ar      1 <0>         0.0010
     10 C7          1.6506   -4.8514    4.2987 C.ar      1 <0>        -0.1826
     11 C8          1.5164   -4.8588    5.6815 C.ar      1 <0>         0.2477
     12 C9          2.6258   -4.6411    6.4884 C.ar      1 <0>        -0.1832
     13 C10         3.8640   -4.4238    5.9159 C.ar      1 <0>         0.0726
     14 Cl1         5.2525   -4.1598    6.9239 Cl        1 <0>        -0.0418
     15 N3          0.2631   -5.0852    6.2615 N.pl3     1 <0>        -0.6981
     16 C11         0.1005   -4.9548    7.6252 C.ar      1 <0>         0.2596
     17 C12         0.3624   -6.0362    8.4990 C.ar      1 <0>        -0.1099
     18 C13         0.7966   -7.2755    8.0040 C.ar      1 <0>        -0.0766
     19 C14         1.0429   -8.3015    8.8613 C.ar      1 <0>        -0.1064
     20 C15         0.8667   -8.1358   10.2450 C.ar      1 <0>        -0.0138
     21 C16         0.4385   -6.9227   10.7603 C.ar      1 <0>        -0.0898
     22 C17         0.1806   -5.8533    9.8913 C.ar      1 <0>         0.1559
     23 N4         -0.2338   -4.6705   10.3692 N.ar      1 <0>        -0.4612
     24 C18        -0.4832   -3.6539    9.5840 C.ar      1 <0>         0.1829
     25 C19        -0.3246   -3.7433    8.1917 C.ar      1 <0>        -0.0829
     26 C20        -0.5988   -2.6117    7.3582 C.1       1 <0>         0.2498
     27 N5         -0.8164   -1.7140    6.6969 N.1       1 <0>        -0.3872
     28 C21         1.1397   -9.2643   11.1585 C.2       1 <0>        -0.1282
     29 C22         1.5494  -10.4279   10.6712 C.2       1 <0>        -0.1158
     30 C23         1.8279  -11.5790   11.6031 C.3       1 <0>         0.0793
     31 N6          1.0386  -12.7466   11.1885 N.3       1 <0>        -0.5344
     32 C24        -0.3997  -12.5006   11.3673 C.3       1 <0>         0.0167
     33 C25        -1.1857  -13.7162   10.8687 C.3       1 <0>         0.0625
     34 O1         -0.7447  -14.8826   11.5690 O.3       1 <0>        -0.3851
     35 C26         0.6514  -15.1524   11.4162 C.3       1 <0>         0.0628
     36 C27         1.4560  -13.9514   11.9203 C.3       1 <0>         0.0163
     37 H1          8.1201   -2.2584    2.0126 H         1 <0>         0.0806
     38 H2          9.0454   -1.6942    3.4246 H         1 <0>         0.0904
     39 H3          8.3009   -3.3110    3.4365 H         1 <0>         0.0891
     40 H4          7.4339    0.4264    3.8477 H         1 <0>         0.1780
     41 H5          5.0103    0.5933    4.8262 H         1 <0>         0.1707
     42 H6          2.9903   -4.6221    2.6510 H         1 <0>         0.1455
     43 H7          0.7876   -5.0200    3.6717 H         1 <0>         0.1389
     44 H8          2.5213   -4.6465    7.5633 H         1 <0>         0.1351
     45 H9         -0.4912   -5.3338    5.7047 H         1 <0>         0.4228
     46 H10         0.9347   -7.4143    6.9419 H         1 <0>         0.1350
     47 H11         1.3769   -9.2531    8.4748 H         1 <0>         0.1362
     48 H12         0.3043   -6.8019   11.8251 H         1 <0>         0.1451
     49 H13        -0.8147   -2.7221   10.0178 H         1 <0>         0.1750
     50 H14         1.0057   -9.1418   12.2231 H         1 <0>         0.1242
     51 H15         1.6834  -10.5504    9.6066 H         1 <0>         0.1236
     52 H16         2.8888  -11.8265   11.5678 H         1 <0>         0.0913
     53 H17         1.5540  -11.2978   12.6199 H         1 <0>         0.0448
     54 H18        -0.6126  -12.3379   12.4238 H         1 <0>         0.0443
     55 H19        -0.6919  -11.6192   10.7965 H         1 <0>         0.0886
     56 H20        -2.2491  -13.5621   11.0517 H         1 <0>         0.0989
     57 H21        -1.0148  -13.8468    9.8002 H         1 <0>         0.0604
     58 H22         0.9166  -16.0370   11.9952 H         1 <0>         0.0997
     59 H23         0.8757  -15.3248   10.3636 H         1 <0>         0.0609
     60 H24         2.5183  -14.1290   11.7533 H         1 <0>         0.0885
     61 H25         1.2727  -13.8119   12.9857 H         1 <0>         0.0450
@<TRIPOS>BOND
     1    1    2 1
     2    1   37 1
     3    1   38 1
     4    1   39 1
     5    2    6 1
     6    2    3 1
     7    3    4 2
     8    3   40 1
     9    4    5 1
    10    4   41 1
    11    5    6 2
    12    6    7 1
    13    7    8 1
    14    8   13 ar
    15    8    9 ar
    16    9   10 ar
    17    9   42 1
    18   10   11 ar
    19   10   43 1
    20   11   12 ar
    21   11   15 1
    22   12   13 ar
    23   12   44 1
    24   13   14 1
    25   15   16 1
    26   15   45 1
    27   16   25 ar
    28   16   17 ar
    29   17   22 ar
    30   17   18 ar
    31   18   19 ar
    32   18   46 1
    33   19   20 ar
    34   19   47 1
    35   20   21 ar
    36   20   28 1
    37   21   22 ar
    38   21   48 1
    39   22   23 ar
    40   23   24 ar
    41   24   25 ar
    42   24   49 1
    43   25   26 1
    44   26   27 3
    45   28   29 2
    46   28   50 1
    47   29   30 1
    48   29   51 1
    49   30   31 1
    50   30   52 1
    51   30   53 1
    52   31   36 1
    53   31   32 1
    54   32   33 1
    55   32   54 1
    56   32   55 1
    57   33   34 1
    58   33   56 1
    59   33   57 1
    60   34   35 1
    61   35   36 1
    62   35   58 1
    63   35   59 1
    64   36   60 1
    65   36   61 1
@<TRIPOS>MOLECULE
CHEMBL485237__1
   62    66     0     0     0
SMALL
USER_CHARGES

@<TRIPOS>ATOM
      1 C1          8.1856   -2.2805    3.1004 C.3       1 <0>         0.0689
      2 N1          6.9631   -1.7133    3.6748 N.pl3     1 <0>        -0.4469
      3 C2          6.7405   -0.3905    3.9829 C.2       1 <0>        -0.0424
      4 C3          5.4963   -0.3088    4.4849 C.2       1 <0>        -0.0193
      5 N2          4.9606   -1.5406    4.4896 N.2       1 <0>        -0.4774
      6 C4          5.8297   -2.3937    3.9997 C.2       1 <0>         0.1717
      7 S1          5.5744   -4.1257    3.8009 S.3       1 <0>         0.0928
      8 C5          3.9968   -4.4108    4.5321 C.ar      1 <0>        -0.1637
      9 C6          2.8865   -4.6281    3.7260 C.ar      1 <0>         0.0017
     10 C7          1.6506   -4.8514    4.2987 C.ar      1 <0>        -0.1796
     11 C8          1.5164   -4.8588    5.6815 C.ar      1 <0>         0.2416
     12 C9          2.6258   -4.6411    6.4884 C.ar      1 <0>        -0.1846
     13 C10         3.8640   -4.4238    5.9159 C.ar      1 <0>         0.0708
     14 Cl1         5.2525   -4.1598    6.9239 Cl        1 <0>        -0.0399
     15 N3          0.2631   -5.0852    6.2615 N.pl3     1 <0>        -0.7007
     16 C11         0.1005   -4.9548    7.6252 C.ar      1 <0>         0.2580
     17 C12         0.3624   -6.0362    8.4990 C.ar      1 <0>        -0.0979
     18 C13         0.7966   -7.2755    8.0040 C.ar      1 <0>        -0.0705
     19 C14         1.0429   -8.3015    8.8613 C.ar      1 <0>        -0.1073
     20 C15         0.8667   -8.1358   10.2450 C.ar      1 <0>        -0.0632
     21 C16         0.4385   -6.9227   10.7603 C.ar      1 <0>        -0.0555
     22 C17         0.1806   -5.8533    9.8913 C.ar      1 <0>         0.1468
     23 N4         -0.2338   -4.6705   10.3692 N.ar      1 <0>        -0.4586
     24 C18        -0.4832   -3.6539    9.5840 C.ar      1 <0>         0.1902
     25 C19        -0.3246   -3.7433    8.1917 C.ar      1 <0>        -0.0634
     26 C20        -0.5988   -2.6117    7.3582 C.1       1 <0>         0.2388
     27 N5         -0.8164   -1.7140    6.6969 N.1       1 <0>        -0.3683
     28 C21         1.1397   -9.2643   11.1585 C.2       1 <0>        -0.0225
     29 C22         1.5494  -10.4279   10.6712 C.2       1 <0>        -0.2390
     30 C23         1.8279  -11.5790   11.6031 C.3       1 <0>         0.0355
     31 N6          1.0386  -12.7466   11.1885 N.4       1 <0>        -0.3843
     32 C24        -0.3921  -12.4536   11.3510 C.3       1 <0>        -0.0443
     33 C25        -1.2122  -13.6714   10.9182 C.3       1 <0>         0.0362
     34 O1         -0.8169  -14.8061   11.6942 O.3       1 <0>        -0.3569
     35 C26         0.5751  -15.1173   11.5877 C.3       1 <0>         0.0356
     36 C27         1.3985  -13.9022   12.0217 C.3       1 <0>        -0.0438
     37 H1          8.1201   -2.2584    2.0126 H         1 <0>         0.0819
     38 H2          9.0454   -1.6942    3.4246 H         1 <0>         0.0919
     39 H3          8.3009   -3.3110    3.4365 H         1 <0>         0.0886
     40 H4          7.4339    0.4264    3.8477 H         1 <0>         0.1796
     41 H5          5.0103    0.5933    4.8262 H         1 <0>         0.1719
     42 H6          2.9903   -4.6221    2.6510 H         1 <0>         0.1476
     43 H7          0.7876   -5.0200    3.6717 H         1 <0>         0.1400
     44 H8          2.5213   -4.6465    7.5633 H         1 <0>         0.1326
     45 H9         -0.4912   -5.3338    5.7047 H         1 <0>         0.4242
     46 H10         0.9347   -7.4143    6.9419 H         1 <0>         0.1394
     47 H11         1.3769   -9.2531    8.4748 H         1 <0>         0.1327
     48 H12         0.3043   -6.8019   11.8251 H         1 <0>         0.1501
     49 H13        -0.8147   -2.7221   10.0178 H         1 <0>         0.1812
     50 H14         1.0057   -9.1418   12.2231 H         1 <0>         0.1364
     51 H15         1.6834  -10.5504    9.6066 H         1 <0>         0.1400
     52 H16         2.8888  -11.8265   11.5678 H         1 <0>         0.1403
     53 H17         1.5540  -11.2978   12.6199 H         1 <0>         0.1321
     54 H18        -0.6005  -12.2278   12.3968 H         1 <0>         0.1380
     55 H19        -0.6602  -11.5965   10.7332 H         1 <0>         0.1426
     56 H20        -2.2718  -13.4723   11.0783 H         1 <0>         0.1412
     57 H21        -1.0346  -13.8732    9.8619 H         1 <0>         0.0806
     58 H22         0.8090  -15.9646   12.2323 H         1 <0>         0.1420
     59 H23         0.8138  -15.3685   10.5542 H         1 <0>         0.0811
     60 H24         2.4597  -14.1204   11.9018 H         1 <0>         0.1432
     61 H25         1.1894  -13.6758   13.0672 H         1 <0>         0.1392
     62 H26         1.2314  -12.9565   10.2206 H         1 <0>         0.4232
@<TRIPOS>BOND
     1    1    2 1
     2    1   37 1
     3    1   38 1
     4    1   39 1
     5    2    6 1
     6    2    3 1
     7    3    4 2
     8    3   40 1
     9    4    5 1
    10    4   41 1
    11    5    6 2
    12    6    7 1
    13    7    8 1
    14    8   13 ar
    15    8    9 ar
    16    9   10 ar
    17    9   42 1
    18   10   11 ar
    19   10   43 1
    20   11   12 ar
    21   11   15 1
    22   12   13 ar
    23   12   44 1
    24   13   14 1
    25   15   16 1
    26   15   45 1
    27   16   25 ar
    28   16   17 ar
    29   17   22 ar
    30   17   18 ar
    31   18   19 ar
    32   18   46 1
    33   19   20 ar
    34   19   47 1
    35   20   21 ar
    36   20   28 1
    37   21   22 ar
    38   21   48 1
    39   22   23 ar
    40   23   24 ar
    41   24   25 ar
    42   24   49 1
    43   25   26 1
    44   26   27 3
    45   28   29 2
    46   28   50 1
    47   29   30 1
    48   29   51 1
    49   30   31 1
    50   30   52 1
    51   30   53 1
    52   31   36 1
    53   31   32 1
    54   31   62 1
    55   32   33 1
    56   32   54 1
    57   32   55 1
    58   33   34 1
    59   33   56 1
    60   33   57 1
    61   34   35 1
    62   35   36 1
    63   35   58 1
    64   35   59 1
    65   36   60 1
    66   36   61 1
@<TRIPOS>MOLECULE
CHEMBL214587
   57    60     0     0     0
SMALL
USER_CHARGES

@<TRIPOS>ATOM
      1 C1         -1.7270    1.2635    0.1664 C.ar      1 <0>        -0.1269
      2 C2         -1.3687    2.2072    1.1085 C.ar      1 <0>        -0.0921
      3 C3         -0.9850    1.8072    2.3805 C.ar      1 <0>         0.0744
      4 C4         -0.9613    0.4588    2.7068 C.ar      1 <0>        -0.0693
      5 C5         -1.3197   -0.4859    1.7658 C.ar      1 <0>        -0.1527
      6 C6         -1.7035   -0.0863    0.4923 C.ar      1 <0>         0.1444
      7 N1         -2.0670   -1.0436   -0.4623 N.pl3     1 <0>        -0.6362
      8 C7         -2.0929   -2.3757   -0.1244 C.2       1 <0>         0.1753
      9 C8         -3.1734   -3.2617   -0.1790 C.2       1 <0>        -0.3588
     10 C9         -2.8815   -4.5608    0.2338 C.2       1 <0>         0.5453
     11 N2         -1.6153   -4.7936    0.6268 N.am      1 <0>        -0.7223
     12 S1         -0.8345   -3.3268    0.4444 S.3       1 <0>         0.5518
     13 O1         -3.7285   -5.4396    0.2391 O.2       1 <0>        -0.5163
     14 C10        -4.5112   -2.8552   -0.6352 C.cat     1 <0>         0.6229
     15 N3         -5.4525   -3.7510   -0.7807 N.pl3     1 <0>        -0.6079
     16 C11        -6.7851   -3.3461   -1.2351 C.3       1 <0>         0.0658
     17 C12        -7.6906   -4.5765   -1.3202 C.3       1 <0>         0.0398
     18 N4         -9.0268   -4.1705   -1.7759 N.3       1 <0>        -0.5316
     19 C13        -9.6908   -3.3245   -0.7735 C.3       1 <0>         0.0081
     20 C14       -11.0517   -2.8763   -1.3127 C.3       1 <0>         0.0620
     21 O2        -11.8288   -4.0289   -1.6487 O.3       1 <0>        -0.3793
     22 C15       -11.2122   -4.8749   -2.6230 C.3       1 <0>         0.0616
     23 C16        -9.8528   -5.3434   -2.0971 C.3       1 <0>         0.0175
     24 N5         -4.7729   -1.5287   -0.9096 N.pl3     1 <0>        -0.8028
     25 O3         -0.6315    2.7369    3.3074 O.3       1 <0>        -0.2354
     26 C17        -1.6016    3.5569    3.7907 C.ar      1 <0>         0.1384
     27 C18        -2.9227    3.3687    3.4119 C.ar      1 <0>        -0.1813
     28 C19        -3.9077    4.2039    3.9053 C.ar      1 <0>         0.0043
     29 C20        -3.5765    5.2272    4.7764 C.ar      1 <0>        -0.1238
     30 C21        -2.2606    5.4170    5.1549 C.ar      1 <0>        -0.0572
     31 C22        -1.2727    4.5809    4.6688 C.ar      1 <0>        -0.0575
     32 Cl1         0.3786    4.8155    5.1504 Cl        1 <0>        -0.0349
     33 Cl2        -5.5613    3.9695    3.4314 Cl        1 <0>        -0.0516
     34 H1         -2.0296    1.5752   -0.8224 H         1 <0>         0.1455
     35 H2         -1.3869    3.2569    0.8552 H         1 <0>         0.1483
     36 H3         -0.6622    0.1482    3.6969 H         1 <0>         0.1504
     37 H4         -1.3009   -1.5355    2.0198 H         1 <0>         0.1329
     38 H5         -2.3006   -0.7669   -1.3621 H         1 <0>         0.4340
     39 H6         -7.2083   -2.6318   -0.5289 H         1 <0>         0.1013
     40 H7         -6.7083   -2.8827   -2.2187 H         1 <0>         0.1140
     41 H8         -7.2674   -5.2909   -2.0264 H         1 <0>         0.0970
     42 H9         -7.7673   -5.0399   -0.3367 H         1 <0>         0.0573
     43 H10        -9.8327   -3.8927    0.1458 H         1 <0>         0.0520
     44 H11        -9.0738   -2.4493   -0.5697 H         1 <0>         0.0841
     45 H12       -11.5720   -2.2961   -0.5506 H         1 <0>         0.1036
     46 H13       -10.9069   -2.2631   -2.2021 H         1 <0>         0.0632
     47 H14       -11.8485   -5.7402   -2.8087 H         1 <0>         0.1063
     48 H15       -11.0720   -4.3198   -3.5506 H         1 <0>         0.0643
     49 H16        -9.3542   -5.9419   -2.8595 H         1 <0>         0.0936
     50 H17        -9.9973   -5.9439   -1.1990 H         1 <0>         0.0522
     51 H18        -4.0587   -0.8739   -0.8640 H         1 <0>         0.4269
     52 H19        -5.6711   -1.2509   -1.1482 H         1 <0>         0.4287
     53 H20        -3.1816    2.5705    2.7319 H         1 <0>         0.1453
     54 H21        -4.3474    5.8786    5.1608 H         1 <0>         0.1506
     55 H22        -2.0047    6.2164    5.8345 H         1 <0>         0.1570
     56 H23        -5.2685   -4.6837   -0.5877 H         1 <0>         0.4494
     57 H24        -1.2380   -5.6295    0.9427 H         1 <0>         0.4685
@<TRIPOS>BOND
     1    1    6 ar
     2    1    2 ar
     3    1   34 1
     4    2    3 ar
     5    2   35 1
     6    3    4 ar
     7    3   25 1
     8    4    5 ar
     9    4   36 1
    10    5    6 ar
    11    5   37 1
    12    6    7 1
    13    7    8 1
    14    7   38 1
    15    8   12 1
    16    8    9 2
    17    9   10 1
    18    9   14 1
    19   10   11 am
    20   10   13 2
    21   11   12 1
    22   11   57 1
    23   14   15 2
    24   14   24 1
    25   15   16 1
    26   15   56 1
    27   16   17 1
    28   16   39 1
    29   16   40 1
    30   17   18 1
    31   17   41 1
    32   17   42 1
    33   18   23 1
    34   18   19 1
    35   19   20 1
    36   19   43 1
    37   19   44 1
    38   20   21 1
    39   20   45 1
    40   20   46 1
    41   21   22 1
    42   22   23 1
    43   22   47 1
    44   22   48 1
    45   23   49 1
    46   23   50 1
    47   24   51 1
    48   24   52 1
    49   25   26 1
    50   26   31 ar
    51   26   27 ar
    52   27   28 ar
    53   27   53 1
    54   28   29 ar
    55   28   33 1
    56   29   30 ar
    57   29   54 1
    58   30   31 ar
    59   30   55 1
    60   31   32 1
@<TRIPOS>MOLECULE
CHEMBL244488
   36    37     0     0     0
SMALL
USER_CHARGES

@<TRIPOS>ATOM
      1 C1          5.2874    1.7416    3.2468 C.ar      1 <0>        -0.0443
      2 C2          4.7409    2.3284    2.1215 C.ar      1 <0>        -0.1622
      3 C3          4.1470    1.5383    1.1469 C.ar      1 <0>         0.2231
      4 C4          4.1040    0.1568    1.3067 C.ar      1 <0>         0.0455
      5 C5          4.6527   -0.4236    2.4350 C.ar      1 <0>        -0.0731
      6 C6          5.2437    0.3683    3.4038 C.ar      1 <0>        -0.1266
      7 I1          6.0741   -0.5152    5.1122 I         1 <0>        -0.0333
      8 F1          3.5266   -0.6161    0.3610 F         1 <0>        -0.1332
      9 N1          3.5925    2.1297    0.0069 N.pl3     1 <0>        -0.6782
     10 C7          3.5180    3.5148   -0.0915 C.ar      1 <0>         0.1982
     11 C8          4.6295    4.2519   -0.5306 C.ar      1 <0>        -0.1138
     12 C9          4.5427    5.6439   -0.6254 C.ar      1 <0>        -0.0631
     13 C10         3.3715    6.2847   -0.2890 C.ar      1 <0>        -0.1221
     14 C11         2.2727    5.5555    0.1456 C.ar      1 <0>         0.1067
     15 C12         2.3411    4.1761    0.2388 C.ar      1 <0>         0.0666
     16 F2          1.2658    3.4732    0.6567 F         1 <0>        -0.1093
     17 F3          1.1288    6.1951    0.4734 F         1 <0>        -0.1137
     18 C13         5.8809    3.5619   -0.8890 C.2       1 <0>         0.5703
     19 O1          5.9221    2.3466   -0.9050 O.2       1 <0>        -0.4851
     20 N2          6.9800    4.2776   -1.1993 N.am      1 <0>        -0.5962
     21 O2          8.1827    3.6145   -1.5438 O.3       1 <0>        -0.1246
     22 C14         9.2655    4.4957   -1.8488 C.3       1 <0>         0.0288
     23 C15        10.5065    3.6747   -2.2047 C.3       1 <0>         0.0837
     24 O3         10.2644    2.9427   -3.4079 O.3       1 <0>        -0.5672
     25 H1          5.7534    2.3561    4.0029 H         1 <0>         0.1359
     26 H2          4.7755    3.4010    2.0004 H         1 <0>         0.1313
     27 H3          4.6198   -1.4957    2.5607 H         1 <0>         0.1436
     28 H4          3.2600    1.5736   -0.7150 H         1 <0>         0.4235
     29 H5          5.3942    6.2165   -0.9621 H         1 <0>         0.1495
     30 H6          3.3072    7.3602   -0.3632 H         1 <0>         0.1622
     31 H7          6.9471    5.2470   -1.1865 H         1 <0>         0.4046
     32 H8          8.9929    5.1272   -2.6943 H         1 <0>         0.0720
     33 H9          9.4800    5.1213   -0.9823 H         1 <0>         0.0789
     34 H10        11.3550    4.3432   -2.3507 H         1 <0>         0.0741
     35 H11        10.7269    2.9795   -1.3946 H         1 <0>         0.0611
     36 H12        11.0107    2.3984   -3.6941 H         1 <0>         0.3863
@<TRIPOS>BOND
     1    1    6 ar
     2    1    2 ar
     3    1   25 1
     4    2    3 ar
     5    2   26 1
     6    3    4 ar
     7    3    9 1
     8    4    5 ar
     9    4    8 1
    10    5    6 ar
    11    5   27 1
    12    6    7 1
    13    9   10 1
    14    9   28 1
    15   10   15 ar
    16   10   11 ar
    17   11   12 ar
    18   11   18 1
    19   12   13 ar
    20   12   29 1
    21   13   14 ar
    22   13   30 1
    23   14   15 ar
    24   14   17 1
    25   15   16 1
    26   18   19 2
    27   18   20 am
    28   20   21 1
    29   20   31 1
    30   21   22 1
    31   22   23 1
    32   22   32 1
    33   22   33 1
    34   23   24 1
    35   23   34 1
    36   23   35 1
    37   24   36 1
@<TRIPOS>MOLECULE
CHEMBL31497
   67    71     0     0     0
SMALL
USER_CHARGES

@<TRIPOS>ATOM
      1 C1         -2.7275    2.3050   -4.1855 C.3       1 <0>         0.0224
      2 O1         -2.5734    0.8892   -4.3037 O.3       1 <0>        -0.2972
      3 C2         -2.9817    0.1337   -3.2493 C.ar      1 <0>         0.1285
      4 C3         -3.5148    0.7404   -2.1486 C.ar      1 <0>        -0.1600
      5 C4         -3.9368   -0.0362   -1.0596 C.ar      1 <0>        -0.0985
      6 C5         -3.8088   -1.4456   -1.1050 C.ar      1 <0>         0.1672
      7 C6         -3.2574   -2.0457   -2.2472 C.ar      1 <0>        -0.1773
      8 C7         -2.8566   -1.2613   -3.3049 C.ar      1 <0>         0.1597
      9 O2         -2.3289   -1.8450   -4.4124 O.3       1 <0>        -0.2920
     10 C8         -2.2277   -3.2704   -4.4086 C.3       1 <0>         0.0547
     11 C9         -1.6148   -3.7416   -5.7289 C.3       1 <0>        -0.1160
     12 C10        -1.5064   -5.2678   -5.7249 C.3       1 <0>         0.0586
     13 N1         -0.9179   -5.7202   -6.9925 N.3       1 <0>        -0.5363
     14 C11        -1.8192   -5.4432   -8.1204 C.3       1 <0>         0.0125
     15 C12        -1.1435   -5.8748   -9.4246 C.3       1 <0>         0.0624
     16 O3         -0.7932   -7.2587   -9.3388 O.3       1 <0>        -0.3852
     17 C13         0.0844   -7.5641   -8.2517 C.3       1 <0>         0.0626
     18 C14        -0.5789   -7.1496   -6.9356 C.3       1 <0>         0.0173
     19 N2         -4.2112   -2.1941   -0.0673 N.ar      1 <0>        -0.4611
     20 C15        -4.7295   -1.6638    1.0108 C.ar      1 <0>         0.1791
     21 C16        -4.8939   -0.2755    1.1421 C.ar      1 <0>        -0.0870
     22 C17        -4.4930    0.5658    0.0930 C.ar      1 <0>         0.2608
     23 N3         -4.6371    1.9356    0.1828 N.pl3     1 <0>        -0.7024
     24 C18        -5.8162    2.5454   -0.2593 C.ar      1 <0>         0.2116
     25 C19        -6.7952    1.7891   -0.8908 C.ar      1 <0>        -0.1665
     26 C20        -7.9584    2.3916   -1.3268 C.ar      1 <0>        -0.0731
     27 C21        -8.1496    3.7523   -1.1343 C.ar      1 <0>         0.0292
     28 C22        -7.1722    4.5086   -0.5036 C.ar      1 <0>        -0.0742
     29 C23        -6.0108    3.9065   -0.0619 C.ar      1 <0>        -0.1641
     30 O4         -9.2952    4.3451   -1.5644 O.3       1 <0>        -0.2472
     31 C24        -9.3207    4.8409   -2.8275 C.ar      1 <0>         0.1635
     32 C25       -10.4609    5.4664   -3.3265 C.ar      1 <0>        -0.2022
     33 C26       -10.4467    5.9576   -4.6156 C.ar      1 <0>         0.1337
     34 N4         -9.3719    5.8402   -5.3722 N.ar      1 <0>        -0.5067
     35 C27        -8.2730    5.2543   -4.9356 C.ar      1 <0>         0.1343
     36 C28        -8.2054    4.7424   -3.6562 C.ar      1 <0>        -0.2490
     37 C29        -5.4646    0.2761    2.3340 C.1       1 <0>         0.2532
     38 N5         -5.9174    0.7136    3.2796 N.1       1 <0>        -0.3927
     39 H1         -2.3639    2.7870   -5.0930 H         1 <0>         0.1076
     40 H2         -3.7811    2.5453   -4.0436 H         1 <0>         0.0588
     41 H3         -2.1548    2.6626   -3.3297 H         1 <0>         0.0584
     42 H4         -3.6110    1.8157   -2.1164 H         1 <0>         0.1482
     43 H5         -3.1526   -3.1194   -2.2983 H         1 <0>         0.1565
     44 H6         -1.5941   -3.5875   -3.5803 H         1 <0>         0.0712
     45 H7         -3.2207   -3.7049   -4.2935 H         1 <0>         0.0687
     46 H8         -2.2483   -3.4246   -6.5572 H         1 <0>         0.0768
     47 H9         -0.6217   -3.3072   -5.8440 H         1 <0>         0.0865
     48 H10        -0.8728   -5.5849   -4.8966 H         1 <0>         0.0816
     49 H11        -2.4994   -5.7023   -5.6098 H         1 <0>         0.0405
     50 H12        -2.7473   -5.9997   -7.9898 H         1 <0>         0.0447
     51 H13        -2.0365   -4.3757   -8.1590 H         1 <0>         0.0904
     52 H14        -1.8303   -5.7242  -10.2576 H         1 <0>         0.0994
     53 H15        -0.2434   -5.2806   -9.5822 H         1 <0>         0.0611
     54 H16         0.2857   -8.6353   -8.2362 H         1 <0>         0.0997
     55 H17         1.0202   -7.0190   -8.3751 H         1 <0>         0.0611
     56 H18         0.1093   -7.3278   -6.1092 H         1 <0>         0.0882
     57 H19        -1.4871   -7.7334   -6.7860 H         1 <0>         0.0448
     58 H20        -5.0386   -2.3097    1.8193 H         1 <0>         0.1742
     59 H21        -3.9210    2.4754    0.5524 H         1 <0>         0.4197
     60 H22        -6.6464    0.7300   -1.0410 H         1 <0>         0.1292
     61 H23        -8.7196    1.8037   -1.8181 H         1 <0>         0.1343
     62 H24        -7.3217    5.5677   -0.3542 H         1 <0>         0.1357
     63 H25        -5.2520    4.4945    0.4330 H         1 <0>         0.1351
     64 H26       -11.3441    5.5651   -2.7127 H         1 <0>         0.1441
     65 H27       -11.3264    6.4440   -5.0106 H         1 <0>         0.1648
     66 H28        -7.4146    5.1781   -5.5865 H         1 <0>         0.1580
     67 H29        -7.3014    4.2682   -3.3034 H         1 <0>         0.1380
@<TRIPOS>BOND
     1    1    2 1
     2    1   39 1
     3    1   40 1
     4    1   41 1
     5    2    3 1
     6    3    8 ar
     7    3    4 ar
     8    4    5 ar
     9    4   42 1
    10    5   22 ar
    11    5    6 ar
    12    6    7 ar
    13    6   19 ar
    14    7    8 ar
    15    7   43 1
    16    8    9 1
    17    9   10 1
    18   10   11 1
    19   10   44 1
    20   10   45 1
    21   11   12 1
    22   11   46 1
    23   11   47 1
    24   12   13 1
    25   12   48 1
    26   12   49 1
    27   13   18 1
    28   13   14 1
    29   14   15 1
    30   14   50 1
    31   14   51 1
    32   15   16 1
    33   15   52 1
    34   15   53 1
    35   16   17 1
    36   17   18 1
    37   17   54 1
    38   17   55 1
    39   18   56 1
    40   18   57 1
    41   19   20 ar
    42   20   21 ar
    43   20   58 1
    44   21   22 ar
    45   21   37 1
    46   22   23 1
    47   23   24 1
    48   23   59 1
    49   24   29 ar
    50   24   25 ar
    51   25   26 ar
    52   25   60 1
    53   26   27 ar
    54   26   61 1
    55   27   28 ar
    56   27   30 1
    57   28   29 ar
    58   28   62 1
    59   29   63 1
    60   30   31 1
    61   31   36 ar
    62   31   32 ar
    63   32   33 ar
    64   32   64 1
    65   33   34 ar
    66   33   65 1
    67   34   35 ar
    68   35   36 ar
    69   35   66 1
    70   36   67 1
    71   37   38 3
@<TRIPOS>MOLECULE
CHEMBL31497__1
   68    72     0     0     0
SMALL
USER_CHARGES

@<TRIPOS>ATOM
      1 C1          4.9567    2.3874   -0.2216 C.3       1 <0>         0.0239
      2 O1          5.0041    0.9687   -0.0574 O.3       1 <0>        -0.2956
      3 C2          4.3068    0.2199   -0.9531 C.ar      1 <0>         0.1321
      4 C3          3.6105    0.8360   -1.9529 C.ar      1 <0>        -0.1668
      5 C4          2.8904    0.0664   -2.8782 C.ar      1 <0>        -0.0965
      6 C5          2.8876   -1.3456   -2.7729 C.ar      1 <0>         0.1688
      7 C6          3.6106   -1.9553   -1.7364 C.ar      1 <0>        -0.1744
      8 C7          4.3142   -1.1776   -0.8449 C.ar      1 <0>         0.1599
      9 O2          5.0187   -1.7705    0.1540 O.3       1 <0>        -0.2916
     10 C8          4.9870   -3.1980    0.2112 C.3       1 <0>         0.0542
     11 C9          5.8315   -3.6798    1.3926 C.3       1 <0>        -0.1157
     12 C10         5.7976   -5.2082    1.4539 C.3       1 <0>         0.0581
     13 N1          6.6084   -5.6708    2.5882 N.3       1 <0>        -0.5363
     14 C11         8.0313   -5.3673    2.3772 C.3       1 <0>         0.0132
     15 C12         8.8299   -5.8112    3.6057 C.3       1 <0>         0.0620
     16 O3          8.6021   -7.2038    3.8384 O.3       1 <0>        -0.3842
     17 C13         7.2268   -7.5349    4.0486 C.3       1 <0>         0.0621
     18 C14         6.4119   -7.1085    2.8246 C.3       1 <0>         0.0174
     19 N2          2.2017   -2.0874   -3.6551 N.ar      1 <0>        -0.4551
     20 C15         1.5187   -1.5480   -4.6322 C.ar      1 <0>         0.1798
     21 C16         1.4655   -0.1565   -4.8124 C.ar      1 <0>        -0.0781
     22 C17         2.1607    0.6781   -3.9240 C.ar      1 <0>         0.2440
     23 N3          2.1336    2.0508   -4.0663 N.pl3     1 <0>        -0.6920
     24 C18         3.0962    2.6916   -4.8539 C.ar      1 <0>         0.2363
     25 C19         4.1441    1.9622   -5.4010 C.ar      1 <0>        -0.1685
     26 C20         5.0936    2.5953   -6.1781 C.ar      1 <0>        -0.0589
     27 C21         5.0013    3.9597   -6.4127 C.ar      1 <0>        -0.0232
     28 C22         3.9548    4.6890   -5.8666 C.ar      1 <0>        -0.0597
     29 C23         3.0013    4.0564   -5.0939 C.ar      1 <0>        -0.1663
     30 O4          5.9370    4.5825   -7.1777 O.3       1 <0>        -0.2042
     31 C24         7.0359    5.0832   -6.5583 C.ar      1 <0>         0.2452
     32 C25         8.0281    5.7389   -7.2836 C.ar      1 <0>        -0.1607
     33 C26         9.1298    6.2341   -6.6170 C.ar      1 <0>         0.1638
     34 N4          9.2498    6.0924   -5.3105 N.ar      1 <0>        -0.4729
     35 C27         8.3316    5.4776   -4.5891 C.ar      1 <0>         0.1671
     36 C28         7.1978    4.9597   -5.1803 C.ar      1 <0>        -0.2130
     37 C29         0.7099    0.4051   -5.8915 C.1       1 <0>         0.2471
     38 N5          0.1105    0.8505   -6.7475 N.1       1 <0>        -0.3849
     39 H1          5.3566    2.6535   -1.2000 H         1 <0>         0.0533
     40 H2          3.9239    2.7275   -0.1464 H         1 <0>         0.0596
     41 H3          5.5535    2.8633    0.5566 H         1 <0>         0.1073
     42 H4          3.6139    1.9132   -2.0308 H         1 <0>         0.1458
     43 H5          3.6192   -3.0311   -1.6416 H         1 <0>         0.1590
     44 H6          3.9580   -3.5338    0.3393 H         1 <0>         0.0730
     45 H7          5.3903   -3.6078   -0.7148 H         1 <0>         0.0696
     46 H8          6.8605   -3.3440    1.2645 H         1 <0>         0.0763
     47 H9          5.4282   -3.2700    2.3186 H         1 <0>         0.0872
     48 H10         4.7686   -5.5440    1.5820 H         1 <0>         0.0823
     49 H11         6.2009   -5.6180    0.5279 H         1 <0>         0.0404
     50 H12         8.3907   -5.9008    1.4972 H         1 <0>         0.0444
     51 H13         8.1567   -4.2946    2.2297 H         1 <0>         0.0887
     52 H14         9.8921   -5.6405    3.4305 H         1 <0>         0.0991
     53 H15         8.5073   -5.2392    4.4756 H         1 <0>         0.0612
     54 H16         7.1295   -8.6108    4.1938 H         1 <0>         0.1011
     55 H17         6.8576   -7.0131    4.9315 H         1 <0>         0.0618
     56 H18         5.3552   -7.3068    3.0038 H         1 <0>         0.0891
     57 H19         6.7454   -7.6698    1.9518 H         1 <0>         0.0454
     58 H20         0.9831   -2.1888   -5.3170 H         1 <0>         0.1772
     59 H21         1.4472    2.5712   -3.6202 H         1 <0>         0.4236
     60 H22         4.2164    0.9003   -5.2182 H         1 <0>         0.1378
     61 H23         5.9087    2.0285   -6.6033 H         1 <0>         0.1396
     62 H24         3.8837    5.7510   -6.0496 H         1 <0>         0.1410
     63 H25         2.1844    4.6234   -4.6726 H         1 <0>         0.1434
     64 H26         7.9363    5.8576   -8.3531 H         1 <0>         0.1923
     65 H27         9.9039    6.7439   -7.1714 H         1 <0>         0.2162
     66 H28         8.4676    5.3821   -3.5219 H         1 <0>         0.2106
     67 H29         6.4479    4.4617   -4.5836 H         1 <0>         0.1843
     68 H30        10.0354    6.4500   -4.8679 H         1 <0>         0.4527
@<TRIPOS>BOND
     1    1    2 1
     2    1   39 1
     3    1   40 1
     4    1   41 1
     5    2    3 1
     6    3    8 ar
     7    3    4 ar
     8    4    5 ar
     9    4   42 1
    10    5   22 ar
    11    5    6 ar
    12    6    7 ar
    13    6   19 ar
    14    7    8 ar
    15    7   43 1
    16    8    9 1
    17    9   10 1
    18   10   11 1
    19   10   44 1
    20   10   45 1
    21   11   12 1
    22   11   46 1
    23   11   47 1
    24   12   13 1
    25   12   48 1
    26   12   49 1
    27   13   18 1
    28   13   14 1
    29   14   15 1
    30   14   50 1
    31   14   51 1
    32   15   16 1
    33   15   52 1
    34   15   53 1
    35   16   17 1
    36   17   18 1
    37   17   54 1
    38   17   55 1
    39   18   56 1
    40   18   57 1
    41   19   20 ar
    42   20   21 ar
    43   20   58 1
    44   21   22 ar
    45   21   37 1
    46   22   23 1
    47   23   24 1
    48   23   59 1
    49   24   29 ar
    50   24   25 ar
    51   25   26 ar
    52   25   60 1
    53   26   27 ar
    54   26   61 1
    55   27   28 ar
    56   27   30 1
    57   28   29 ar
    58   28   62 1
    59   29   63 1
    60   30   31 1
    61   31   36 ar
    62   31   32 ar
    63   32   33 ar
    64   32   64 1
    65   33   34 ar
    66   33   65 1
    67   34   35 ar
    68   34   68 1
    69   35   36 ar
    70   35   66 1
    71   36   67 1
    72   37   38 3
@<TRIPOS>MOLECULE
CHEMBL31497__2
   68    72     0     0     0
SMALL
USER_CHARGES

@<TRIPOS>ATOM
      1 C1          4.9567    2.3874   -0.2216 C.3       1 <0>         0.0212
      2 O1          5.0041    0.9687   -0.0574 O.3       1 <0>        -0.3015
      3 C2          4.3068    0.2199   -0.9531 C.ar      1 <0>         0.1251
      4 C3          3.6105    0.8360   -1.9529 C.ar      1 <0>        -0.1512
      5 C4          2.8904    0.0664   -2.8782 C.ar      1 <0>        -0.0952
      6 C5          2.8876   -1.3456   -2.7729 C.ar      1 <0>         0.1616
      7 C6          3.6106   -1.9553   -1.7364 C.ar      1 <0>        -0.1694
      8 C7          4.3142   -1.1776   -0.8449 C.ar      1 <0>         0.1494
      9 O2          5.0187   -1.7705    0.1540 O.3       1 <0>        -0.2937
     10 C8          4.9870   -3.1980    0.2112 C.3       1 <0>         0.0564
     11 C9          5.8315   -3.6798    1.3926 C.3       1 <0>        -0.1506
     12 C10         5.7976   -5.2082    1.4539 C.3       1 <0>        -0.0060
     13 N1          6.6084   -5.6708    2.5882 N.4       1 <0>        -0.3843
     14 C11         8.0173   -5.3232    2.3574 C.3       1 <0>        -0.0502
     15 C12         8.8599   -5.8060    3.5406 C.3       1 <0>         0.0361
     16 O3          8.6861   -7.2169    3.6987 O.3       1 <0>        -0.3562
     17 C13         7.3255   -7.6082    3.9025 C.3       1 <0>         0.0354
     18 C14         6.4800   -7.1287    2.7200 C.3       1 <0>        -0.0432
     19 N2          2.2017   -2.0874   -3.6551 N.ar      1 <0>        -0.4638
     20 C15         1.5187   -1.5480   -4.6322 C.ar      1 <0>         0.1843
     21 C16         1.4655   -0.1565   -4.8124 C.ar      1 <0>        -0.0770
     22 C17         2.1607    0.6781   -3.9240 C.ar      1 <0>         0.2638
     23 N3          2.1336    2.0508   -4.0663 N.pl3     1 <0>        -0.7049
     24 C18         3.0962    2.6916   -4.8539 C.ar      1 <0>         0.2072
     25 C19         4.1441    1.9622   -5.4010 C.ar      1 <0>        -0.1675
     26 C20         5.0936    2.5953   -6.1781 C.ar      1 <0>        -0.0743
     27 C21         5.0013    3.9597   -6.4127 C.ar      1 <0>         0.0340
     28 C22         3.9548    4.6890   -5.8666 C.ar      1 <0>        -0.0736
     29 C23         3.0013    4.0564   -5.0939 C.ar      1 <0>        -0.1611
     30 O4          5.9370    4.5825   -7.1777 O.3       1 <0>        -0.2471
     31 C24         7.0359    5.0832   -6.5583 C.ar      1 <0>         0.1632
     32 C25         8.0281    5.7389   -7.2836 C.ar      1 <0>        -0.2004
     33 C26         9.1298    6.2341   -6.6170 C.ar      1 <0>         0.1355
     34 N4          9.2498    6.0924   -5.3105 N.ar      1 <0>        -0.5058
     35 C27         8.3316    5.4776   -4.5891 C.ar      1 <0>         0.1336
     36 C28         7.1978    4.9597   -5.1803 C.ar      1 <0>        -0.2504
     37 C29         0.7099    0.4051   -5.8915 C.1       1 <0>         0.2453
     38 N5          0.1105    0.8505   -6.7475 N.1       1 <0>        -0.3800
     39 H1          5.3566    2.6535   -1.2000 H         1 <0>         0.0613
     40 H2          3.9239    2.7275   -0.1464 H         1 <0>         0.0607
     41 H3          5.5535    2.8633    0.5566 H         1 <0>         0.1095
     42 H4          3.6139    1.9132   -2.0308 H         1 <0>         0.1512
     43 H5          3.6192   -3.0311   -1.6416 H         1 <0>         0.1539
     44 H6          3.9580   -3.5338    0.3393 H         1 <0>         0.0792
     45 H7          5.3903   -3.6078   -0.7148 H         1 <0>         0.0789
     46 H8          6.8605   -3.3440    1.2645 H         1 <0>         0.1007
     47 H9          5.4282   -3.2700    2.3186 H         1 <0>         0.1015
     48 H10         4.7686   -5.5440    1.5820 H         1 <0>         0.1383
     49 H11         6.2009   -5.6180    0.5279 H         1 <0>         0.1363
     50 H12         8.3654   -5.8037    1.4431 H         1 <0>         0.1409
     51 H13         8.1137   -4.2419    2.2596 H         1 <0>         0.1447
     52 H14         9.9111   -5.5877    3.3521 H         1 <0>         0.1428
     53 H15         8.5386   -5.2957    4.4486 H         1 <0>         0.0820
     54 H16         7.2661   -8.6941    3.9759 H         1 <0>         0.1430
     55 H17         6.9517   -7.1595    4.8229 H         1 <0>         0.0819
     56 H18         5.4352   -7.3876    2.8913 H         1 <0>         0.1441
     57 H19         6.8286   -7.6085    1.8055 H         1 <0>         0.1403
     58 H20         0.9831   -2.1888   -5.3170 H         1 <0>         0.1773
     59 H21         1.4472    2.5712   -3.6202 H         1 <0>         0.4210
     60 H22         4.2164    0.9003   -5.2182 H         1 <0>         0.1272
     61 H23         5.9087    2.0285   -6.6033 H         1 <0>         0.1346
     62 H24         3.8837    5.7510   -6.0496 H         1 <0>         0.1376
     63 H25         2.1844    4.6234   -4.6726 H         1 <0>         0.1362
     64 H26         7.9363    5.8576   -8.3531 H         1 <0>         0.1454
     65 H27         9.9039    6.7439   -7.1714 H         1 <0>         0.1663
     66 H28         8.4676    5.3821   -3.5219 H         1 <0>         0.1571
     67 H29         6.4479    4.4617   -4.5836 H         1 <0>         0.1367
     68 H30         6.2866   -5.2268    3.4351 H         1 <0>         0.4247
@<TRIPOS>BOND
     1    1    2 1
     2    1   39 1
     3    1   40 1
     4    1   41 1
     5    2    3 1
     6    3    8 ar
     7    3    4 ar
     8    4    5 ar
     9    4   42 1
    10    5   22 ar
    11    5    6 ar
    12    6    7 ar
    13    6   19 ar
    14    7    8 ar
    15    7   43 1
    16    8    9 1
    17    9   10 1
    18   10   11 1
    19   10   44 1
    20   10   45 1
    21   11   12 1
    22   11   46 1
    23   11   47 1
    24   12   13 1
    25   12   48 1
    26   12   49 1
    27   13   18 1
    28   13   14 1
    29   13   68 1
    30   14   15 1
    31   14   50 1
    32   14   51 1
    33   15   16 1
    34   15   52 1
    35   15   53 1
    36   16   17 1
    37   17   18 1
    38   17   54 1
    39   17   55 1
    40   18   56 1
    41   18   57 1
    42   19   20 ar
    43   20   21 ar
    44   20   58 1
    45   21   22 ar
    46   21   37 1
    47   22   23 1
    48   23   24 1
    49   23   59 1
    50   24   29 ar
    51   24   25 ar
    52   25   26 ar
    53   25   60 1
    54   26   27 ar
    55   26   61 1
    56   27   28 ar
    57   27   30 1
    58   28   29 ar
    59   28   62 1
    60   29   63 1
    61   30   31 1
    62   31   36 ar
    63   31   32 ar
    64   32   33 ar
    65   32   64 1
    66   33   34 ar
    67   33   65 1
    68   34   35 ar
    69   35   36 ar
    70   35   66 1
    71   36   67 1
    72   37   38 3
@<TRIPOS>MOLECULE
CHEMBL281662
   69    73     0     0     0
SMALL
USER_CHARGES

@<TRIPOS>ATOM
      1 C1         -4.3089    1.3482    4.7909 C.3       1 <0>         0.0233
      2 O1         -4.3110   -0.0808    4.7876 O.3       1 <0>        -0.2982
      3 C2         -4.4401   -0.6952    3.5814 C.ar      1 <0>         0.1253
      4 C3         -4.5541    0.0572    2.4479 C.ar      1 <0>        -0.1542
      5 C4         -4.6874   -0.5737    1.2023 C.ar      1 <0>        -0.1005
      6 C5         -4.7033   -1.9874    1.1242 C.ar      1 <0>         0.1670
      7 C6         -4.5850   -2.7387    2.3034 C.ar      1 <0>        -0.1785
      8 C7         -4.4492   -2.0952    3.5126 C.ar      1 <0>         0.1595
      9 O2         -4.3284   -2.8248    4.6522 O.3       1 <0>        -0.2927
     10 C8         -4.3446   -4.2472    4.5167 C.3       1 <0>         0.0549
     11 C9         -4.1981   -4.8927    5.8961 C.3       1 <0>        -0.1158
     12 C10        -4.2154   -6.4157    5.7509 C.3       1 <0>         0.0586
     13 N1         -4.0747   -7.0354    7.0754 N.3       1 <0>        -0.5363
     14 C11        -2.7488   -6.7603    7.6476 C.3       1 <0>         0.0125
     15 C12        -2.6667   -7.3720    9.0487 C.3       1 <0>         0.0624
     16 O3         -2.9417   -8.7732    8.9686 O.3       1 <0>        -0.3854
     17 C13        -4.2254   -9.0772    8.4163 C.3       1 <0>         0.0626
     18 C14        -4.3233   -8.4829    7.0089 C.3       1 <0>         0.0174
     19 N2         -4.8296   -2.5969   -0.0638 N.ar      1 <0>        -0.4642
     20 C15        -4.9414   -1.9237   -1.1803 C.ar      1 <0>         0.1796
     21 C16        -4.9349   -0.5196   -1.1968 C.ar      1 <0>        -0.0926
     22 C17        -4.8069    0.1808    0.0122 C.ar      1 <0>         0.2706
     23 N3         -4.7969    1.5612    0.0390 N.pl3     1 <0>        -0.7083
     24 C18        -5.9843    2.2643    0.2582 C.ar      1 <0>         0.2001
     25 C19        -7.1490    1.5799    0.5825 C.ar      1 <0>        -0.1782
     26 C20        -8.3208    2.2779    0.7985 C.ar      1 <0>        -0.0477
     27 C21        -8.3359    3.6566    0.6917 C.ar      1 <0>        -0.1160
     28 C22        -7.1784    4.3411    0.3691 C.ar      1 <0>        -0.0710
     29 C23        -6.0017    3.6498    0.1579 C.ar      1 <0>        -0.1779
     30 C24        -9.6169    4.4149    0.9271 C.3       1 <0>        -0.0271
     31 C25        -9.7249    4.7779    2.3858 C.ar      1 <0>         0.1363
     32 C26        -9.9142    6.0982    2.7489 C.ar      1 <0>        -0.1714
     33 C27       -10.0123    6.4215    4.0934 C.ar      1 <0>        -0.0730
     34 C28        -9.9158    5.4003    5.0265 C.ar      1 <0>        -0.1796
     35 C29        -9.7265    4.1035    4.5885 C.ar      1 <0>         0.1027
     36 N4         -9.6430    3.8319    3.3006 N.ar      1 <0>        -0.4747
     37 C30        -5.0581    0.1900   -2.4345 C.1       1 <0>         0.2569
     38 N5         -5.1559    0.7529   -3.4164 N.1       1 <0>        -0.3976
     39 H1         -4.1996    1.7090    5.8136 H         1 <0>         0.1060
     40 H2         -3.4777    1.7116    4.1866 H         1 <0>         0.0571
     41 H3         -5.2477    1.7138    4.3750 H         1 <0>         0.0599
     42 H4         -4.5421    1.1353    2.5102 H         1 <0>         0.1481
     43 H5         -4.5953   -3.8179    2.2618 H         1 <0>         0.1556
     44 H6         -5.2879   -4.5588    4.0681 H         1 <0>         0.0709
     45 H7         -3.5180   -4.5609    3.8791 H         1 <0>         0.0681
     46 H8         -3.2547   -4.5812    6.3446 H         1 <0>         0.0763
     47 H9         -5.0246   -4.5790    6.5336 H         1 <0>         0.0864
     48 H10        -5.1587   -6.7272    5.3024 H         1 <0>         0.0818
     49 H11        -3.3888   -6.7294    5.1134 H         1 <0>         0.0405
     50 H12        -1.9799   -7.2005    7.0127 H         1 <0>         0.0446
     51 H13        -2.5962   -5.6829    7.7113 H         1 <0>         0.0905
     52 H14        -1.6664   -7.2200    9.4541 H         1 <0>         0.0992
     53 H15        -3.3999   -6.8937    9.6982 H         1 <0>         0.0611
     54 H16        -4.3524  -10.1586    8.3645 H         1 <0>         0.0996
     55 H17        -5.0039   -8.6486    9.0474 H         1 <0>         0.0611
     56 H18        -5.3201   -8.6629    6.6063 H         1 <0>         0.0883
     57 H19        -3.5796   -8.9506    6.3637 H         1 <0>         0.0447
     58 H20        -5.0408   -2.4610   -2.1118 H         1 <0>         0.1729
     59 H21        -3.9656    2.0429   -0.0943 H         1 <0>         0.4162
     60 H22        -7.1380    0.5031    0.6653 H         1 <0>         0.1181
     61 H23        -9.2266    1.7465    1.0506 H         1 <0>         0.1250
     62 H24        -7.1938    5.4178    0.2862 H         1 <0>         0.1223
     63 H25        -5.0970    4.1854   -0.0893 H         1 <0>         0.1222
     64 H26        -9.6169    5.3238    0.3255 H         1 <0>         0.0876
     65 H27       -10.4652    3.7918    0.6440 H         1 <0>         0.0910
     66 H28        -9.9845    6.8681    1.9948 H         1 <0>         0.1339
     67 H29       -10.1600    7.4445    4.4066 H         1 <0>         0.1338
     68 H30        -9.9874    5.6158    6.0824 H         1 <0>         0.1338
     69 H31        -9.6503    3.3025    5.3089 H         1 <0>         0.1545
@<TRIPOS>BOND
     1    1    2 1
     2    1   39 1
     3    1   40 1
     4    1   41 1
     5    2    3 1
     6    3    8 ar
     7    3    4 ar
     8    4    5 ar
     9    4   42 1
    10    5   22 ar
    11    5    6 ar
    12    6    7 ar
    13    6   19 ar
    14    7    8 ar
    15    7   43 1
    16    8    9 1
    17    9   10 1
    18   10   11 1
    19   10   44 1
    20   10   45 1
    21   11   12 1
    22   11   46 1
    23   11   47 1
    24   12   13 1
    25   12   48 1
    26   12   49 1
    27   13   18 1
    28   13   14 1
    29   14   15 1
    30   14   50 1
    31   14   51 1
    32   15   16 1
    33   15   52 1
    34   15   53 1
    35   16   17 1
    36   17   18 1
    37   17   54 1
    38   17   55 1
    39   18   56 1
    40   18   57 1
    41   19   20 ar
    42   20   21 ar
    43   20   58 1
    44   21   22 ar
    45   21   37 1
    46   22   23 1
    47   23   24 1
    48   23   59 1
    49   24   29 ar
    50   24   25 ar
    51   25   26 ar
    52   25   60 1
    53   26   27 ar
    54   26   61 1
    55   27   28 ar
    56   27   30 1
    57   28   29 ar
    58   28   62 1
    59   29   63 1
    60   30   31 1
    61   30   64 1
    62   30   65 1
    63   31   36 ar
    64   31   32 ar
    65   32   33 ar
    66   32   66 1
    67   33   34 ar
    68   33   67 1
    69   34   35 ar
    70   34   68 1
    71   35   36 ar
    72   35   69 1
    73   37   38 3
@<TRIPOS>MOLECULE
CHEMBL281662__1
   70    74     0     0     0
SMALL
USER_CHARGES

@<TRIPOS>ATOM
      1 C1         -2.0121    1.4392   -6.0977 C.3       1 <0>         0.0221
      2 O1         -1.9859    0.0107   -6.1265 O.3       1 <0>        -0.3024
      3 C2         -0.8672   -0.5960   -5.6475 C.ar      1 <0>         0.1219
      4 C3          0.1597    0.1630   -5.1645 C.ar      1 <0>        -0.1454
      5 C4          1.3149   -0.4600   -4.6697 C.ar      1 <0>        -0.0971
      6 C5          1.4125   -1.8726   -4.6727 C.ar      1 <0>         0.1616
      7 C6          0.3439   -2.6307   -5.1748 C.ar      1 <0>        -0.1708
      8 C7         -0.7813   -1.9951   -5.6489 C.ar      1 <0>         0.1492
      9 O2         -1.8172   -2.7314   -6.1286 O.3       1 <0>        -0.2942
     10 C8         -1.6696   -4.1526   -6.1034 C.3       1 <0>         0.0566
     11 C9         -2.9274   -4.8063   -6.6790 C.3       1 <0>        -0.1505
     12 C10        -2.7693   -6.3279   -6.6520 C.3       1 <0>        -0.0061
     13 N1         -3.9770   -6.9556   -7.2047 N.4       1 <0>        -0.3843
     14 C11        -5.1223   -6.6691   -6.3298 C.3       1 <0>        -0.0502
     15 C12        -6.3793   -7.3240   -6.9080 C.3       1 <0>         0.0362
     16 O3         -6.1591   -8.7309   -7.0415 O.3       1 <0>        -0.3563
     17 C13        -5.0380   -9.0606   -7.8663 C.3       1 <0>         0.0355
     18 C14        -3.7785   -8.4090   -7.2899 C.3       1 <0>        -0.0433
     19 N2          2.5140   -2.4746   -4.2003 N.ar      1 <0>        -0.4670
     20 C15         3.5263   -1.7948   -3.7255 C.ar      1 <0>         0.1849
     21 C16         3.5155   -0.3913   -3.6835 C.ar      1 <0>        -0.0827
     22 C17         2.3935    0.3014   -4.1631 C.ar      1 <0>         0.2733
     23 N3          2.3438    1.6811   -4.1402 N.pl3     1 <0>        -0.7103
     24 C18         2.7364    2.4130   -5.2639 C.ar      1 <0>         0.1960
     25 C19         3.0482    1.7569   -6.4481 C.ar      1 <0>        -0.1793
     26 C20         3.4359    2.4833   -7.5567 C.ar      1 <0>        -0.0486
     27 C21         3.5144    3.8624   -7.4889 C.ar      1 <0>        -0.1117
     28 C22         3.2048    4.5187   -6.3117 C.ar      1 <0>        -0.0699
     29 C23         2.8104    3.7988   -5.2011 C.ar      1 <0>        -0.1751
     30 C24         3.9389    4.6517   -8.7004 C.3       1 <0>        -0.0286
     31 C25         2.7240    5.0122   -9.5159 C.ar      1 <0>         0.1357
     32 C26         2.4835    6.3355   -9.8351 C.ar      1 <0>        -0.1694
     33 C27         1.3631    6.6565  -10.5857 C.ar      1 <0>        -0.0717
     34 C28         0.5227    5.6299  -10.9891 C.ar      1 <0>        -0.1788
     35 C29         0.8276    4.3304  -10.6321 C.ar      1 <0>         0.1005
     36 N4          1.9055    4.0613   -9.9214 N.ar      1 <0>        -0.4766
     37 C30         4.6379    0.3255   -3.1572 C.1       1 <0>         0.2490
     38 N5          5.5283    0.8941   -2.7397 N.1       1 <0>        -0.3849
     39 H1         -1.9098    1.7838   -5.0687 H         1 <0>         0.0595
     40 H2         -1.1884    1.8298   -6.6953 H         1 <0>         0.0623
     41 H3         -2.9580    1.7936   -6.5072 H         1 <0>         0.1078
     42 H4          0.0829    1.2402   -5.1636 H         1 <0>         0.1511
     43 H5          0.4018   -3.7091   -5.1845 H         1 <0>         0.1529
     44 H6         -0.8049   -4.4387   -6.7021 H         1 <0>         0.0790
     45 H7         -1.5256   -4.4846   -5.0752 H         1 <0>         0.0784
     46 H8         -3.7921   -4.5202   -6.0803 H         1 <0>         0.1003
     47 H9         -3.0714   -4.4742   -7.7072 H         1 <0>         0.1013
     48 H10        -1.9046   -6.6140   -7.2507 H         1 <0>         0.1385
     49 H11        -2.6253   -6.6600   -5.6238 H         1 <0>         0.1362
     50 H12        -4.9287   -7.0694   -5.3346 H         1 <0>         0.1408
     51 H13        -5.2704   -5.5911   -6.2660 H         1 <0>         0.1447
     52 H14        -7.2215   -7.1492   -6.2385 H         1 <0>         0.1426
     53 H15        -6.5960   -6.8950   -7.8863 H         1 <0>         0.0819
     54 H16        -4.9095  -10.1427   -7.8903 H         1 <0>         0.1429
     55 H17        -5.2089   -8.6911   -8.8774 H         1 <0>         0.0819
     56 H18        -2.9292   -8.6226   -7.9388 H         1 <0>         0.1442
     57 H19        -3.5855   -8.8086   -6.2944 H         1 <0>         0.1403
     58 H20         4.3910   -2.3263   -3.3565 H         1 <0>         0.1761
     59 H21         2.0364    2.1422   -3.3442 H         1 <0>         0.4177
     60 H22         2.9878    0.6799   -6.5015 H         1 <0>         0.1160
     61 H23         3.6784    1.9739   -8.4776 H         1 <0>         0.1252
     62 H24         3.2675    5.5957   -6.2620 H         1 <0>         0.1243
     63 H25         2.5641    4.3123   -4.2834 H         1 <0>         0.1235
     64 H26         4.4457    5.5624   -8.3815 H         1 <0>         0.0892
     65 H27         4.6177    4.0510   -9.3059 H         1 <0>         0.0918
     66 H28         3.1598    7.1096   -9.5035 H         1 <0>         0.1352
     67 H29         1.1497    7.6818  -10.8497 H         1 <0>         0.1352
     68 H30        -0.3593    5.8435  -11.5747 H         1 <0>         0.1340
     69 H31         0.1781    3.5252  -10.9423 H         1 <0>         0.1530
     70 H32        -4.1566   -6.5859   -8.1262 H         1 <0>         0.4246
@<TRIPOS>BOND
     1    1    2 1
     2    1   39 1
     3    1   40 1
     4    1   41 1
     5    2    3 1
     6    3    8 ar
     7    3    4 ar
     8    4    5 ar
     9    4   42 1
    10    5   22 ar
    11    5    6 ar
    12    6    7 ar
    13    6   19 ar
    14    7    8 ar
    15    7   43 1
    16    8    9 1
    17    9   10 1
    18   10   11 1
    19   10   44 1
    20   10   45 1
    21   11   12 1
    22   11   46 1
    23   11   47 1
    24   12   13 1
    25   12   48 1
    26   12   49 1
    27   13   18 1
    28   13   14 1
    29   13   70 1
    30   14   15 1
    31   14   50 1
    32   14   51 1
    33   15   16 1
    34   15   52 1
    35   15   53 1
    36   16   17 1
    37   17   18 1
    38   17   54 1
    39   17   55 1
    40   18   56 1
    41   18   57 1
    42   19   20 ar
    43   20   21 ar
    44   20   58 1
    45   21   22 ar
    46   21   37 1
    47   22   23 1
    48   23   24 1
    49   23   59 1
    50   24   29 ar
    51   24   25 ar
    52   25   26 ar
    53   25   60 1
    54   26   27 ar
    55   26   61 1
    56   27   28 ar
    57   27   30 1
    58   28   29 ar
    59   28   62 1
    60   29   63 1
    61   30   31 1
    62   30   64 1
    63   30   65 1
    64   31   36 ar
    65   31   32 ar
    66   32   33 ar
    67   32   66 1
    68   33   34 ar
    69   33   67 1
    70   34   35 ar
    71   34   68 1
    72   35   36 ar
    73   35   69 1
    74   37   38 3
@<TRIPOS>MOLECULE
CHEMBL383858
   55    58     0     0     0
SMALL
USER_CHARGES

@<TRIPOS>ATOM
      1 C1         -0.0427    1.3997    0.0196 C.3       1 <0>         0.0207
      2 N1         -0.0185   -0.0690    0.0139 N.3       1 <0>        -0.5377
      3 C2          0.5654   -0.5811   -1.2330 C.3       1 <0>         0.0354
      4 C3          0.4079   -2.1047   -1.2790 C.3       1 <0>         0.1414
      5 N2          0.9779   -2.6707   -0.0470 N.pl3     1 <0>        -0.5456
      6 C4          0.5421   -2.1123    1.2420 C.3       1 <0>         0.1365
      7 C5          0.6943   -0.5884    1.1887 C.3       1 <0>         0.0372
      8 N3          1.9111   -3.7144   -0.0998 N.pl3     1 <0>        -0.3833
      9 C6          3.1717   -3.4734    0.1261 C.cat     1 <0>         0.6138
     10 C7          4.1335   -4.5897    0.2053 C.2       1 <0>        -0.3515
     11 C8          3.7791   -5.9065   -0.0728 C.2       1 <0>         0.5449
     12 N4          4.7562   -6.8260    0.0386 N.am      1 <0>        -0.7209
     13 S1          6.1073   -5.9566    0.5009 S.3       1 <0>         0.5507
     14 C9          5.4703   -4.4065    0.5590 C.2       1 <0>         0.1759
     15 N5          6.1136   -3.2319    0.8817 N.pl3     1 <0>        -0.6346
     16 C10         6.7251   -3.0898    2.1328 C.ar      1 <0>         0.1500
     17 C11         6.7620   -4.1627    3.0140 C.ar      1 <0>        -0.1552
     18 C12         7.3654   -4.0217    4.2479 C.ar      1 <0>        -0.0824
     19 C13         7.9343   -2.8085    4.6078 C.ar      1 <0>         0.0712
     20 C14         7.8978   -1.7362    3.7280 C.ar      1 <0>        -0.0726
     21 C15         7.3003   -1.8775    2.4913 C.ar      1 <0>        -0.1292
     22 O1          8.5274   -2.6701    5.8234 O.3       1 <0>        -0.2376
     23 C16         9.7544   -3.2266    6.0016 C.ar      1 <0>         0.1379
     24 C17        10.4156   -3.8087    4.9300 C.ar      1 <0>        -0.1794
     25 C18        11.6640   -4.3737    5.1139 C.ar      1 <0>         0.0044
     26 C19        12.2537   -4.3592    6.3659 C.ar      1 <0>        -0.1240
     27 C20        11.5966   -3.7802    7.4354 C.ar      1 <0>        -0.0578
     28 C21        10.3508   -3.2084    7.2554 C.ar      1 <0>        -0.0584
     29 Cl1         9.5296   -2.4746    8.5974 Cl        1 <0>        -0.0371
     30 Cl2        12.4922   -5.1023    3.7734 Cl        1 <0>        -0.0486
     31 O2          2.6428   -6.2116   -0.3998 O.2       1 <0>        -0.5147
     32 N6          3.6114   -2.1614    0.2929 N.pl3     1 <0>        -0.8045
     33 H1          0.9787    1.7800    0.0050 H         1 <0>         0.0299
     34 H2         -0.5764    1.7578   -0.8608 H         1 <0>         0.0786
     35 H3         -0.5485    1.7513    0.9189 H         1 <0>         0.0785
     36 H4          0.0510   -0.1364   -2.0850 H         1 <0>         0.1040
     37 H5          1.6238   -0.3235   -1.2717 H         1 <0>         0.0358
     38 H6         -0.6493   -2.3617   -1.3450 H         1 <0>         0.0933
     39 H7          0.9388   -2.5017   -2.1442 H         1 <0>         0.0890
     40 H8         -0.5022   -2.3700    1.4183 H         1 <0>         0.0961
     41 H9          1.1618   -2.5143    2.0435 H         1 <0>         0.0847
     42 H10         1.7509   -0.3307    1.1163 H         1 <0>         0.0302
     43 H11         0.2735   -0.1490    2.0931 H         1 <0>         0.1057
     44 H12         6.1429   -2.5034    0.2420 H         1 <0>         0.4309
     45 H13         6.3186   -5.1069    2.7343 H         1 <0>         0.1318
     46 H14         7.3941   -4.8559    4.9333 H         1 <0>         0.1475
     47 H15         8.3406   -0.7921    4.0090 H         1 <0>         0.1508
     48 H16         7.2762   -1.0442    1.8046 H         1 <0>         0.1451
     49 H17         9.9555   -3.8208    3.9530 H         1 <0>         0.1457
     50 H18        13.2288   -4.8014    6.5076 H         1 <0>         0.1505
     51 H19        12.0587   -3.7705    8.4114 H         1 <0>         0.1564
     52 H20         2.9703   -1.4337    0.3112 H         1 <0>         0.4252
     53 H21         4.5585   -1.9760    0.3907 H         1 <0>         0.4205
     54 H22         1.6188   -4.6164   -0.3046 H         1 <0>         0.4559
     55 H23         4.6907   -7.7815   -0.1151 H         1 <0>         0.4691
@<TRIPOS>BOND
     1    1    2 1
     2    1   33 1
     3    1   34 1
     4    1   35 1
     5    2    7 1
     6    2    3 1
     7    3    4 1
     8    3   36 1
     9    3   37 1
    10    4    5 1
    11    4   38 1
    12    4   39 1
    13    5    6 1
    14    5    8 1
    15    6    7 1
    16    6   40 1
    17    6   41 1
    18    7   42 1
    19    7   43 1
    20    8    9 2
    21    8   54 1
    22    9   10 1
    23    9   32 1
    24   10   14 2
    25   10   11 1
    26   11   12 am
    27   11   31 2
    28   12   13 1
    29   12   55 1
    30   13   14 1
    31   14   15 1
    32   15   16 1
    33   15   44 1
    34   16   21 ar
    35   16   17 ar
    36   17   18 ar
    37   17   45 1
    38   18   19 ar
    39   18   46 1
    40   19   20 ar
    41   19   22 1
    42   20   21 ar
    43   20   47 1
    44   21   48 1
    45   22   23 1
    46   23   28 ar
    47   23   24 ar
    48   24   25 ar
    49   24   49 1
    50   25   26 ar
    51   25   30 1
    52   26   27 ar
    53   26   50 1
    54   27   28 ar
    55   27   51 1
    56   28   29 1
    57   32   52 1
    58   32   53 1
@<TRIPOS>MOLECULE
CHEMBL31143
   67    71     0     0     0
SMALL
USER_CHARGES

@<TRIPOS>ATOM
      1 C1         -2.0121    1.4392   -6.0977 C.3       1 <0>         0.0229
      2 O1         -1.9859    0.0107   -6.1265 O.3       1 <0>        -0.2980
      3 C2         -0.8672   -0.5960   -5.6475 C.ar      1 <0>         0.1259
      4 C3          0.1597    0.1630   -5.1645 C.ar      1 <0>        -0.1562
      5 C4          1.3149   -0.4600   -4.6697 C.ar      1 <0>        -0.1003
      6 C5          1.4125   -1.8726   -4.6727 C.ar      1 <0>         0.1670
      7 C6          0.3439   -2.6307   -5.1748 C.ar      1 <0>        -0.1783
      8 C7         -0.7813   -1.9951   -5.6489 C.ar      1 <0>         0.1596
      9 O2         -1.8172   -2.7314   -6.1286 O.3       1 <0>        -0.2925
     10 C8         -1.6696   -4.1526   -6.1034 C.3       1 <0>         0.0549
     11 C9         -2.9274   -4.8063   -6.6790 C.3       1 <0>        -0.1159
     12 C10        -2.7693   -6.3279   -6.6520 C.3       1 <0>         0.0586
     13 N1         -3.9770   -6.9556   -7.2047 N.3       1 <0>        -0.5363
     14 C11        -5.1394   -6.7158   -6.3372 C.3       1 <0>         0.0125
     15 C12        -6.3844   -7.3343   -6.9789 C.3       1 <0>         0.0624
     16 O3         -6.1557   -8.7278   -7.2049 O.3       1 <0>        -0.3853
     17 C13        -5.0312   -8.9976   -8.0464 C.3       1 <0>         0.0626
     18 C14        -3.7726   -8.3961   -7.4156 C.3       1 <0>         0.0174
     19 N2          2.5140   -2.4746   -4.2003 N.ar      1 <0>        -0.4634
     20 C15         3.5263   -1.7948   -3.7255 C.ar      1 <0>         0.1795
     21 C16         3.5155   -0.3913   -3.6835 C.ar      1 <0>        -0.0913
     22 C17         2.3935    0.3014   -4.1631 C.ar      1 <0>         0.2680
     23 N3          2.3438    1.6811   -4.1402 N.pl3     1 <0>        -0.7068
     24 C18         2.7364    2.4130   -5.2639 C.ar      1 <0>         0.2036
     25 C19         3.0482    1.7569   -6.4481 C.ar      1 <0>        -0.1769
     26 C20         3.4359    2.4833   -7.5567 C.ar      1 <0>        -0.0618
     27 C21         3.5144    3.8624   -7.4889 C.ar      1 <0>        -0.1283
     28 C22         3.2048    4.5187   -6.3117 C.ar      1 <0>        -0.0629
     29 C23         2.8104    3.7988   -5.2011 C.ar      1 <0>        -0.1757
     30 C24         3.9389    4.6517   -8.7004 C.3       1 <0>         0.0044
     31 C25         2.7240    5.0122   -9.5159 C.2       1 <0>        -0.0038
     32 C26         1.9875    6.1295   -9.3785 C.2       1 <0>        -0.2089
     33 C27         0.9525    6.0585  -10.3391 C.2       1 <0>        -0.2132
     34 C28         1.1184    4.9022  -11.0060 C.2       1 <0>        -0.0434
     35 O4          2.1963    4.2754  -10.5071 O.3       1 <0>        -0.1752
     36 C29         4.6379    0.3255   -3.1572 C.1       1 <0>         0.2561
     37 N4          5.5283    0.8941   -2.7397 N.1       1 <0>        -0.3964
     38 H1         -1.9098    1.7838   -5.0687 H         1 <0>         0.0578
     39 H2         -1.1884    1.8298   -6.6953 H         1 <0>         0.0594
     40 H3         -2.9580    1.7936   -6.5072 H         1 <0>         0.1067
     41 H4          0.0829    1.2402   -5.1636 H         1 <0>         0.1483
     42 H5          0.4018   -3.7091   -5.1845 H         1 <0>         0.1559
     43 H6         -0.8049   -4.4387   -6.7021 H         1 <0>         0.0709
     44 H7         -1.5256   -4.4846   -5.0752 H         1 <0>         0.0684
     45 H8         -3.7921   -4.5202   -6.0803 H         1 <0>         0.0765
     46 H9         -3.0714   -4.4742   -7.7072 H         1 <0>         0.0864
     47 H10        -1.9046   -6.6140   -7.2507 H         1 <0>         0.0817
     48 H11        -2.6253   -6.6600   -5.6238 H         1 <0>         0.0405
     49 H12        -4.9669   -7.1730   -5.3629 H         1 <0>         0.0446
     50 H13        -5.2876   -5.6429   -6.2155 H         1 <0>         0.0904
     51 H14        -7.2377   -7.2089   -6.3124 H         1 <0>         0.0993
     52 H15        -6.5879   -6.8400   -7.9288 H         1 <0>         0.0611
     53 H16        -4.9059  -10.0752   -8.1520 H         1 <0>         0.0997
     54 H17        -5.1954   -8.5517   -9.0274 H         1 <0>         0.0611
     55 H18        -2.9230   -8.5496   -8.0810 H         1 <0>         0.0883
     56 H19        -3.5782   -8.8801   -6.4585 H         1 <0>         0.0448
     57 H20         4.3910   -2.3263   -3.3565 H         1 <0>         0.1733
     58 H21         2.0364    2.1422   -3.3442 H         1 <0>         0.4172
     59 H22         2.9878    0.6799   -6.5015 H         1 <0>         0.1202
     60 H23         3.6784    1.9739   -8.4776 H         1 <0>         0.1248
     61 H24         3.2675    5.5957   -6.2620 H         1 <0>         0.1261
     62 H25         2.5641    4.3123   -4.2834 H         1 <0>         0.1252
     63 H26         4.4457    5.5624   -8.3815 H         1 <0>         0.1024
     64 H27         4.6177    4.0510   -9.3059 H         1 <0>         0.0897
     65 H28         2.1545    6.9273   -8.6700 H         1 <0>         0.1458
     66 H29         0.1773    6.7919  -10.5052 H         1 <0>         0.1471
     67 H30         0.4932    4.5411  -11.8092 H         1 <0>         0.2015
@<TRIPOS>BOND
     1    1    2 1
     2    1   38 1
     3    1   39 1
     4    1   40 1
     5    2    3 1
     6    3    8 ar
     7    3    4 ar
     8    4    5 ar
     9    4   41 1
    10    5   22 ar
    11    5    6 ar
    12    6    7 ar
    13    6   19 ar
    14    7    8 ar
    15    7   42 1
    16    8    9 1
    17    9   10 1
    18   10   11 1
    19   10   43 1
    20   10   44 1
    21   11   12 1
    22   11   45 1
    23   11   46 1
    24   12   13 1
    25   12   47 1
    26   12   48 1
    27   13   18 1
    28   13   14 1
    29   14   15 1
    30   14   49 1
    31   14   50 1
    32   15   16 1
    33   15   51 1
    34   15   52 1
    35   16   17 1
    36   17   18 1
    37   17   53 1
    38   17   54 1
    39   18   55 1
    40   18   56 1
    41   19   20 ar
    42   20   21 ar
    43   20   57 1
    44   21   22 ar
    45   21   36 1
    46   22   23 1
    47   23   24 1
    48   23   58 1
    49   24   29 ar
    50   24   25 ar
    51   25   26 ar
    52   25   59 1
    53   26   27 ar
    54   26   60 1
    55   27   28 ar
    56   27   30 1
    57   28   29 ar
    58   28   61 1
    59   29   62 1
    60   30   31 1
    61   30   63 1
    62   30   64 1
    63   31   35 1
    64   31   32 2
    65   32   33 1
    66   32   65 1
    67   33   34 2
    68   33   66 1
    69   34   35 1
    70   34   67 1
    71   36   37 3
@<TRIPOS>MOLECULE
CHEMBL31143__1
   68    72     0     0     0
SMALL
USER_CHARGES

@<TRIPOS>ATOM
      1 C1         -2.0121    1.4392   -6.0977 C.3       1 <0>         0.0217
      2 O1         -1.9859    0.0107   -6.1265 O.3       1 <0>        -0.3023
      3 C2         -0.8672   -0.5960   -5.6475 C.ar      1 <0>         0.1226
      4 C3          0.1597    0.1630   -5.1645 C.ar      1 <0>        -0.1474
      5 C4          1.3149   -0.4600   -4.6697 C.ar      1 <0>        -0.0969
      6 C5          1.4125   -1.8726   -4.6727 C.ar      1 <0>         0.1616
      7 C6          0.3439   -2.6307   -5.1748 C.ar      1 <0>        -0.1704
      8 C7         -0.7813   -1.9951   -5.6489 C.ar      1 <0>         0.1492
      9 O2         -1.8172   -2.7314   -6.1286 O.3       1 <0>        -0.2941
     10 C8         -1.6696   -4.1526   -6.1034 C.3       1 <0>         0.0565
     11 C9         -2.9274   -4.8063   -6.6790 C.3       1 <0>        -0.1505
     12 C10        -2.7693   -6.3279   -6.6520 C.3       1 <0>        -0.0061
     13 N1         -3.9770   -6.9556   -7.2047 N.4       1 <0>        -0.3843
     14 C11        -5.1223   -6.6691   -6.3298 C.3       1 <0>        -0.0502
     15 C12        -6.3793   -7.3240   -6.9080 C.3       1 <0>         0.0362
     16 O3         -6.1591   -8.7309   -7.0415 O.3       1 <0>        -0.3563
     17 C13        -5.0380   -9.0606   -7.8663 C.3       1 <0>         0.0355
     18 C14        -3.7785   -8.4090   -7.2899 C.3       1 <0>        -0.0433
     19 N2          2.5140   -2.4746   -4.2003 N.ar      1 <0>        -0.4662
     20 C15         3.5263   -1.7948   -3.7255 C.ar      1 <0>         0.1848
     21 C16         3.5155   -0.3913   -3.6835 C.ar      1 <0>        -0.0813
     22 C17         2.3935    0.3014   -4.1631 C.ar      1 <0>         0.2708
     23 N3          2.3438    1.6811   -4.1402 N.pl3     1 <0>        -0.7089
     24 C18         2.7364    2.4130   -5.2639 C.ar      1 <0>         0.1995
     25 C19         3.0482    1.7569   -6.4481 C.ar      1 <0>        -0.1781
     26 C20         3.4359    2.4833   -7.5567 C.ar      1 <0>        -0.0627
     27 C21         3.5144    3.8624   -7.4889 C.ar      1 <0>        -0.1240
     28 C22         3.2048    4.5187   -6.3117 C.ar      1 <0>        -0.0618
     29 C23         2.8104    3.7988   -5.2011 C.ar      1 <0>        -0.1728
     30 C24         3.9389    4.6517   -8.7004 C.3       1 <0>         0.0030
     31 C25         2.7240    5.0122   -9.5159 C.2       1 <0>        -0.0049
     32 C26         1.9875    6.1295   -9.3785 C.2       1 <0>        -0.2073
     33 C27         0.9525    6.0585  -10.3391 C.2       1 <0>        -0.2117
     34 C28         1.1184    4.9022  -11.0060 C.2       1 <0>        -0.0449
     35 O4          2.1963    4.2754  -10.5071 O.3       1 <0>        -0.1762
     36 C29         4.6379    0.3255   -3.1572 C.1       1 <0>         0.2481
     37 N4          5.5283    0.8941   -2.7397 N.1       1 <0>        -0.3836
     38 H1         -1.9098    1.7838   -5.0687 H         1 <0>         0.0603
     39 H2         -1.1884    1.8298   -6.6953 H         1 <0>         0.0618
     40 H3         -2.9580    1.7936   -6.5072 H         1 <0>         0.1086
     41 H4          0.0829    1.2402   -5.1636 H         1 <0>         0.1512
     42 H5          0.4018   -3.7091   -5.1845 H         1 <0>         0.1533
     43 H6         -0.8049   -4.4387   -6.7021 H         1 <0>         0.0790
     44 H7         -1.5256   -4.4846   -5.0752 H         1 <0>         0.0786
     45 H8         -3.7921   -4.5202   -6.0803 H         1 <0>         0.1004
     46 H9         -3.0714   -4.4742   -7.7072 H         1 <0>         0.1014
     47 H10        -1.9046   -6.6140   -7.2507 H         1 <0>         0.1385
     48 H11        -2.6253   -6.6600   -5.6238 H         1 <0>         0.1363
     49 H12        -4.9287   -7.0694   -5.3346 H         1 <0>         0.1408
     50 H13        -5.2704   -5.5911   -6.2660 H         1 <0>         0.1447
     51 H14        -7.2215   -7.1492   -6.2385 H         1 <0>         0.1427
     52 H15        -6.5960   -6.8950   -7.8863 H         1 <0>         0.0819
     53 H16        -4.9095  -10.1427   -7.8903 H         1 <0>         0.1430
     54 H17        -5.2089   -8.6911   -8.8774 H         1 <0>         0.0819
     55 H18        -2.9292   -8.6226   -7.9388 H         1 <0>         0.1442
     56 H19        -3.5855   -8.8086   -6.2944 H         1 <0>         0.1403
     57 H20         4.3910   -2.3263   -3.3565 H         1 <0>         0.1765
     58 H21         2.0364    2.1422   -3.3442 H         1 <0>         0.4187
     59 H22         2.9878    0.6799   -6.5015 H         1 <0>         0.1180
     60 H23         3.6784    1.9739   -8.4776 H         1 <0>         0.1250
     61 H24         3.2675    5.5957   -6.2620 H         1 <0>         0.1282
     62 H25         2.5641    4.3123   -4.2834 H         1 <0>         0.1265
     63 H26         4.4457    5.5624   -8.3815 H         1 <0>         0.1039
     64 H27         4.6177    4.0510   -9.3059 H         1 <0>         0.0906
     65 H28         2.1545    6.9273   -8.6700 H         1 <0>         0.1467
     66 H29         0.1773    6.7919  -10.5052 H         1 <0>         0.1478
     67 H30         0.4932    4.5411  -11.8092 H         1 <0>         0.2014
     68 H31        -4.1566   -6.5859   -8.1262 H         1 <0>         0.4246
@<TRIPOS>BOND
     1    1    2 1
     2    1   38 1
     3    1   39 1
     4    1   40 1
     5    2    3 1
     6    3    8 ar
     7    3    4 ar
     8    4    5 ar
     9    4   41 1
    10    5   22 ar
    11    5    6 ar
    12    6    7 ar
    13    6   19 ar
    14    7    8 ar
    15    7   42 1
    16    8    9 1
    17    9   10 1
    18   10   11 1
    19   10   43 1
    20   10   44 1
    21   11   12 1
    22   11   45 1
    23   11   46 1
    24   12   13 1
    25   12   47 1
    26   12   48 1
    27   13   18 1
    28   13   14 1
    29   13   68 1
    30   14   15 1
    31   14   49 1
    32   14   50 1
    33   15   16 1
    34   15   51 1
    35   15   52 1
    36   16   17 1
    37   17   18 1
    38   17   53 1
    39   17   54 1
    40   18   55 1
    41   18   56 1
    42   19   20 ar
    43   20   21 ar
    44   20   57 1
    45   21   22 ar
    46   21   36 1
    47   22   23 1
    48   23   24 1
    49   23   58 1
    50   24   29 ar
    51   24   25 ar
    52   25   26 ar
    53   25   59 1
    54   26   27 ar
    55   26   60 1
    56   27   28 ar
    57   27   30 1
    58   28   29 ar
    59   28   61 1
    60   29   62 1
    61   30   31 1
    62   30   63 1
    63   30   64 1
    64   31   35 1
    65   31   32 2
    66   32   33 1
    67   32   65 1
    68   33   34 2
    69   33   66 1
    70   34   35 1
    71   34   67 1
    72   36   37 3
@<TRIPOS>MOLECULE
CHEMBL284774
   34    35     0     0     0
SMALL
USER_CHARGES

@<TRIPOS>ATOM
      1 C1          1.5438    2.5976   -1.5770 C.ar      1 <0>        -0.1069
      2 C2          2.7360    2.3655   -2.2370 C.ar      1 <0>        -0.1154
      3 C3          3.5021    1.2616   -1.9125 C.ar      1 <0>        -0.1013
      4 C4          3.0763    0.3901   -0.9277 C.ar      1 <0>        -0.0951
      5 C5          1.8845    0.6226   -0.2670 C.ar      1 <0>        -0.1016
      6 C6          1.1176    1.7258   -0.5925 C.ar      1 <0>        -0.1140
      7 C7          3.9110   -0.8139   -0.5746 C.3       1 <0>         0.0353
      8 C8          3.1292   -2.0389   -0.8089 C.1       1 <0>         0.2066
      9 N1          2.5258   -2.9842   -0.9897 N.1       1 <0>        -0.4053
     10 C9          4.3142   -0.7404    0.8995 C.3       1 <0>         0.1166
     11 N2          4.9904    0.5377    1.1591 N.3       1 <0>        -0.8217
     12 S1          5.4393   -2.1094    1.2877 S.3       1 <0>        -0.1186
     13 C10         5.9673   -1.7733    2.9347 C.ar      1 <0>        -0.1897
     14 C11         6.7658   -0.6699    3.1979 C.ar      1 <0>        -0.0036
     15 C12         7.1785   -0.4080    4.4911 C.ar      1 <0>        -0.1903
     16 C13         6.7980   -1.2434    5.5251 C.ar      1 <0>        -0.0455
     17 C14         6.0026   -2.3459    5.2720 C.ar      1 <0>        -0.2101
     18 C15         5.5788   -2.6129    3.9792 C.ar      1 <0>         0.2608
     19 N3          4.7683   -3.7251    3.7216 N.pl3     1 <0>        -0.8699
     20 H1          0.9474    3.4625   -1.8275 H         1 <0>         0.1267
     21 H2          3.0687    3.0465   -3.0064 H         1 <0>         0.1286
     22 H3          4.4333    1.0799   -2.4286 H         1 <0>         0.1287
     23 H4          1.5516   -0.0585    0.5021 H         1 <0>         0.1217
     24 H5          0.1863    1.9073   -0.0767 H         1 <0>         0.1272
     25 H6          4.8065   -0.8300   -1.1958 H         1 <0>         0.1282
     26 H7          3.4238   -0.8137    1.5239 H         1 <0>         0.1064
     27 H8          5.8705    0.5873    0.6683 H         1 <0>         0.3501
     28 H9          4.3966    1.3166    0.9166 H         1 <0>         0.3500
     29 H10         7.0654   -0.0156    2.3925 H         1 <0>         0.1303
     30 H11         7.8001    0.4515    4.6943 H         1 <0>         0.1224
     31 H12         7.1234   -1.0345    6.5335 H         1 <0>         0.1234
     32 H13         5.7077   -2.9964    6.0821 H         1 <0>         0.1231
     33 H14         4.4760   -3.9129    2.8160 H         1 <0>         0.4045
     34 H15         4.4991   -4.3078    4.4488 H         1 <0>         0.3985
@<TRIPOS>BOND
     1    1    6 ar
     2    1    2 ar
     3    1   20 1
     4    2    3 ar
     5    2   21 1
     6    3    4 ar
     7    3   22 1
     8    4    5 ar
     9    4    7 1
    10    5    6 ar
    11    5   23 1
    12    6   24 1
    13    7    8 1
    14    7   10 1
    15    7   25 1
    16    8    9 3
    17   10   11 1
    18   10   12 1
    19   10   26 1
    20   11   27 1
    21   11   28 1
    22   12   13 1
    23   13   18 ar
    24   13   14 ar
    25   14   15 ar
    26   14   29 1
    27   15   16 ar
    28   15   30 1
    29   16   17 ar
    30   16   31 1
    31   17   18 ar
    32   17   32 1
    33   18   19 1
    34   19   33 1
    35   19   34 1
@<TRIPOS>MOLECULE
CHEMBL284774__1
   34    35     0     0     0
SMALL
USER_CHARGES

@<TRIPOS>ATOM
      1 C1         -0.1702    0.7561   -0.5980 C.ar      1 <0>        -0.1080
      2 C2          0.9578    1.5549   -0.6186 C.ar      1 <0>        -0.1195
      3 C3          2.2136    0.9788   -0.5721 C.ar      1 <0>        -0.0929
      4 C4          2.3413   -0.3959   -0.5045 C.ar      1 <0>        -0.1006
      5 C5          1.2132   -1.1947   -0.4830 C.ar      1 <0>        -0.1033
      6 C6         -0.0425   -0.6187   -0.5309 C.ar      1 <0>        -0.1160
      7 C7          3.7103   -1.0240   -0.4548 C.3       1 <0>         0.0732
      8 C8          3.7959   -2.0944   -1.4616 C.1       1 <0>         0.2056
      9 N1          3.8619   -2.9205   -2.2386 N.1       1 <0>        -0.4021
     10 C9          3.9512   -1.6123    0.9369 C.3       1 <0>         0.1259
     11 N2          3.8609   -0.5449    1.9421 N.3       1 <0>        -0.8018
     12 S1          2.6982   -2.8773    1.2838 S.3       1 <0>        -0.1808
     13 C10         3.6178   -4.2075    1.9835 C.ar      1 <0>        -0.1656
     14 C11         4.9658   -4.0470    2.2692 C.ar      1 <0>        -0.0889
     15 C12         5.6850   -5.0920    2.8186 C.ar      1 <0>        -0.1589
     16 C13         5.0651   -6.2990    3.0844 C.ar      1 <0>        -0.0709
     17 C14         3.7219   -6.4681    2.8024 C.ar      1 <0>        -0.1842
     18 C15         2.9911   -5.4237    2.2571 C.ar      1 <0>         0.2411
     19 N3          1.6296   -5.5908    1.9766 N.pl3     1 <0>        -0.8705
     20 H1         -1.1514    1.2064   -0.6298 H         1 <0>         0.1245
     21 H2          0.8580    2.6290   -0.6714 H         1 <0>         0.1273
     22 H3          3.0949    1.6028   -0.5889 H         1 <0>         0.1310
     23 H4          1.3130   -2.2688   -0.4305 H         1 <0>         0.1356
     24 H5         -0.9238   -1.2427   -0.5145 H         1 <0>         0.1245
     25 H6          4.4654   -0.2665   -0.6648 H         1 <0>         0.1421
     26 H7          4.9428   -2.0634    0.9739 H         1 <0>         0.1209
     27 H8          2.9502   -0.1107    1.9276 H         1 <0>         0.3574
     28 H9          4.0798   -0.8956    2.8625 H         1 <0>         0.3584
     29 H10         5.4534   -3.1058    2.0622 H         1 <0>         0.1218
     30 H11         6.7344   -4.9654    3.0404 H         1 <0>         0.1235
     31 H12         5.6317   -7.1123    3.5133 H         1 <0>         0.1253
     32 H13         3.2411   -7.4124    3.0110 H         1 <0>         0.1254
     33 H14         1.1206   -4.8604    1.5914 H         1 <0>         0.3998
     34 H15         1.1954   -6.4369    2.1674 H         1 <0>         0.4005
@<TRIPOS>BOND
     1    1    6 ar
     2    1    2 ar
     3    1   20 1
     4    2    3 ar
     5    2   21 1
     6    3    4 ar
     7    3   22 1
     8    4    5 ar
     9    4    7 1
    10    5    6 ar
    11    5   23 1
    12    6   24 1
    13    7    8 1
    14    7   10 1
    15    7   25 1
    16    8    9 3
    17   10   11 1
    18   10   12 1
    19   10   26 1
    20   11   27 1
    21   11   28 1
    22   12   13 1
    23   13   18 ar
    24   13   14 ar
    25   14   15 ar
    26   14   29 1
    27   15   16 ar
    28   15   30 1
    29   16   17 ar
    30   16   31 1
    31   17   18 ar
    32   17   32 1
    33   18   19 1
    34   19   33 1
    35   19   34 1
@<TRIPOS>MOLECULE
CHEMBL284774__2
   34    35     0     0     0
SMALL
USER_CHARGES

@<TRIPOS>ATOM
      1 C1          1.4984   -3.2150    0.6350 C.ar      1 <0>        -0.1090
      2 C2          0.8463   -2.1268    0.0860 C.ar      1 <0>        -0.1153
      3 C3          1.5453   -0.9643   -0.1805 C.ar      1 <0>        -0.0955
      4 C4          2.8963   -0.8900    0.1024 C.ar      1 <0>        -0.0855
      5 C5          3.5482   -1.9778    0.6523 C.ar      1 <0>        -0.1026
      6 C6          2.8495   -3.1407    0.9175 C.ar      1 <0>        -0.1142
      7 C7          3.6586    0.3770   -0.1890 C.3       1 <0>         0.0344
      8 C8          4.2339    0.9018    1.0601 C.1       1 <0>         0.2035
      9 N1          4.6780    1.3068    2.0241 N.1       1 <0>        -0.4015
     10 C9          4.7831    0.0784   -1.1826 C.3       1 <0>         0.1129
     11 N2          5.5994    1.2845   -1.3751 N.3       1 <0>        -0.8303
     12 S1          4.0680   -0.4276   -2.7711 S.3       1 <0>        -0.0825
     13 C10         5.4492   -1.0200   -3.6909 C.ar      1 <0>        -0.1820
     14 C11         6.6974   -0.4380   -3.5242 C.ar      1 <0>        -0.0604
     15 C12         7.7797   -0.9049   -4.2467 C.ar      1 <0>        -0.1774
     16 C13         7.6225   -1.9512   -5.1368 C.ar      1 <0>        -0.0613
     17 C14         6.3818   -2.5370   -5.3097 C.ar      1 <0>        -0.1990
     18 C15         5.2920   -2.0796   -4.5849 C.ar      1 <0>         0.2489
     19 N3          4.0364   -2.6754   -4.7538 N.pl3     1 <0>        -0.8712
     20 H1          0.9513   -4.1216    0.8474 H         1 <0>         0.1248
     21 H2         -0.2093   -2.1849   -0.1351 H         1 <0>         0.1270
     22 H3          1.0359   -0.1144   -0.6102 H         1 <0>         0.1270
     23 H4          4.6038   -1.9198    0.8731 H         1 <0>         0.1183
     24 H5          3.3589   -3.9908    1.3468 H         1 <0>         0.1250
     25 H6          2.9827    1.1173   -0.6170 H         1 <0>         0.1292
     26 H7          5.4082   -0.7251   -0.7931 H         1 <0>         0.1123
     27 H8          5.0591    2.0227   -1.8006 H         1 <0>         0.3565
     28 H9          6.0049    1.5897   -0.5030 H         1 <0>         0.3450
     29 H10         6.8236    0.3799   -2.8303 H         1 <0>         0.1561
     30 H11         8.7507   -0.4507   -4.1158 H         1 <0>         0.1207
     31 H12         8.4712   -2.3118   -5.6990 H         1 <0>         0.1222
     32 H13         6.2627   -3.3539   -6.0061 H         1 <0>         0.1233
     33 H14         3.2740   -2.3515   -4.2490 H         1 <0>         0.4014
     34 H15         3.9287   -3.4119   -5.3757 H         1 <0>         0.3993
@<TRIPOS>BOND
     1    1    6 ar
     2    1    2 ar
     3    1   20 1
     4    2    3 ar
     5    2   21 1
     6    3    4 ar
     7    3   22 1
     8    4    5 ar
     9    4    7 1
    10    5    6 ar
    11    5   23 1
    12    6   24 1
    13    7    8 1
    14    7   10 1
    15    7   25 1
    16    8    9 3
    17   10   11 1
    18   10   12 1
    19   10   26 1
    20   11   27 1
    21   11   28 1
    22   12   13 1
    23   13   18 ar
    24   13   14 ar
    25   14   15 ar
    26   14   29 1
    27   15   16 ar
    28   15   30 1
    29   16   17 ar
    30   16   31 1
    31   17   18 ar
    32   17   32 1
    33   18   19 1
    34   19   33 1
    35   19   34 1
@<TRIPOS>MOLECULE
CHEMBL284774__3
   34    35     0     0     0
SMALL
USER_CHARGES

@<TRIPOS>ATOM
      1 C1          0.3791    2.0681   -1.5980 C.ar      1 <0>        -0.1108
      2 C2          1.5170    2.4645   -2.2755 C.ar      1 <0>        -0.1162
      3 C3          2.6980    1.7651   -2.1115 C.ar      1 <0>        -0.0946
      4 C4          2.7412    0.6694   -1.2697 C.ar      1 <0>        -0.0669
      5 C5          1.6036    0.2735   -0.5916 C.ar      1 <0>        -0.1021
      6 C6          0.4222    0.9721   -0.7566 C.ar      1 <0>        -0.1153
      7 C7          4.0284   -0.0937   -1.0918 C.3       1 <0>         0.0776
      8 C8          4.4285   -0.0577    0.3244 C.1       1 <0>         0.2028
      9 N1          4.7372   -0.0298    1.4173 N.1       1 <0>        -0.3981
     10 C9          3.8246   -1.5462   -1.5273 C.3       1 <0>         0.1346
     11 N2          3.4254   -1.5822   -2.9406 N.3       1 <0>        -0.8084
     12 S1          5.3741   -2.4648   -1.3131 S.3       1 <0>        -0.1981
     13 C10         4.9210   -4.1409   -1.6136 C.ar      1 <0>        -0.1536
     14 C11         3.5979   -4.4683   -1.8719 C.ar      1 <0>        -0.0934
     15 C12         3.2450   -5.7840   -2.1078 C.ar      1 <0>        -0.1566
     16 C13         4.2073   -6.7767   -2.0869 C.ar      1 <0>        -0.0696
     17 C14         5.5285   -6.4595   -1.8299 C.ar      1 <0>        -0.1822
     18 C15         5.8928   -5.1419   -1.5983 C.ar      1 <0>         0.2420
     19 N3          7.2309   -4.8177   -1.3440 N.pl3     1 <0>        -0.8697
     20 H1         -0.5424    2.6173   -1.7226 H         1 <0>         0.1238
     21 H2          1.4832    3.3205   -2.9331 H         1 <0>         0.1259
     22 H3          3.5868    2.0744   -2.6414 H         1 <0>         0.1263
     23 H4          1.6372   -0.5827    0.0658 H         1 <0>         0.1172
     24 H5         -0.4667    0.6626   -0.2271 H         1 <0>         0.1242
     25 H6          4.8085    0.3623   -1.7014 H         1 <0>         0.1293
     26 H7          3.0446   -2.0023   -0.9177 H         1 <0>         0.1135
     27 H8          4.1327   -1.1649   -3.5268 H         1 <0>         0.3574
     28 H9          3.2222   -2.5257   -3.2350 H         1 <0>         0.3566
     29 H10         2.8436   -3.6956   -1.8882 H         1 <0>         0.1232
     30 H11         2.2145   -6.0373   -2.3087 H         1 <0>         0.1252
     31 H12         3.9262   -7.8029   -2.2716 H         1 <0>         0.1265
     32 H13         6.2774   -7.2375   -1.8140 H         1 <0>         0.1269
     33 H14         7.4835   -3.8960   -1.1781 H         1 <0>         0.4012
     34 H15         7.9053   -5.5148   -1.3337 H         1 <0>         0.4013
@<TRIPOS>BOND
     1    1    6 ar
     2    1    2 ar
     3    1   20 1
     4    2    3 ar
     5    2   21 1
     6    3    4 ar
     7    3   22 1
     8    4    5 ar
     9    4    7 1
    10    5    6 ar
    11    5   23 1
    12    6   24 1
    13    7    8 1
    14    7   10 1
    15    7   25 1
    16    8    9 3
    17   10   11 1
    18   10   12 1
    19   10   26 1
    20   11   27 1
    21   11   28 1
    22   12   13 1
    23   13   18 ar
    24   13   14 ar
    25   14   15 ar
    26   14   29 1
    27   15   16 ar
    28   15   30 1
    29   16   17 ar
    30   16   31 1
    31   17   18 ar
    32   17   32 1
    33   18   19 1
    34   19   33 1
    35   19   34 1
@<TRIPOS>MOLECULE
CHEMBL216832
   57    60     0     0     0
SMALL
USER_CHARGES

@<TRIPOS>ATOM
      1 C1         -1.7270    1.2635    0.1664 C.ar      1 <0>        -0.1266
      2 C2         -1.3688    2.2072    1.1085 C.ar      1 <0>        -0.0922
      3 C3         -0.9850    1.8072    2.3805 C.ar      1 <0>         0.0747
      4 C4         -0.9613    0.4588    2.7068 C.ar      1 <0>        -0.0694
      5 C5         -1.3197   -0.4859    1.7658 C.ar      1 <0>        -0.1524
      6 C6         -1.7035   -0.0863    0.4923 C.ar      1 <0>         0.1440
      7 N1         -2.0670   -1.0437   -0.4623 N.pl3     1 <0>        -0.6362
      8 C7         -2.0929   -2.3757   -0.1244 C.2       1 <0>         0.1756
      9 C8         -3.1735   -3.2617   -0.1790 C.2       1 <0>        -0.3593
     10 C9         -2.8816   -4.5608    0.2338 C.2       1 <0>         0.5459
     11 N2         -1.6153   -4.7936    0.6268 N.am      1 <0>        -0.7224
     12 S1         -0.8345   -3.3268    0.4445 S.3       1 <0>         0.5518
     13 O1         -3.7285   -5.4396    0.2391 O.2       1 <0>        -0.5167
     14 C10        -4.5112   -2.8552   -0.6352 C.cat     1 <0>         0.6238
     15 N3         -5.4525   -3.7510   -0.7807 N.pl3     1 <0>        -0.6088
     16 C11        -6.7851   -3.3461   -1.2351 C.3       1 <0>         0.0632
     17 C12        -7.6906   -4.5765   -1.3202 C.3       1 <0>         0.0388
     18 N4         -9.0268   -4.1705   -1.7759 N.3       1 <0>        -0.5264
     19 C13        -9.9821   -5.2851   -1.6681 C.3       1 <0>         0.0331
     20 C14       -11.3986   -4.7377   -1.8536 C.3       1 <0>         0.1127
     21 N5        -11.4633   -3.9149   -3.0580 N.am      1 <0>        -0.7175
     22 C15       -10.3773   -3.4098   -3.6525 C.2       1 <0>         0.5227
     23 O2        -10.5236   -2.7104   -4.6325 O.2       1 <0>        -0.5427
     24 C16        -8.9832   -3.6724   -3.1572 C.3       1 <0>         0.0298
     25 N6         -4.7729   -1.5287   -0.9096 N.pl3     1 <0>        -0.8021
     26 O3         -0.6316    2.7369    3.3074 O.3       1 <0>        -0.2355
     27 C17        -1.6016    3.5569    3.7906 C.ar      1 <0>         0.1384
     28 C18        -2.9228    3.3687    3.4119 C.ar      1 <0>        -0.1813
     29 C19        -3.9078    4.2040    3.9053 C.ar      1 <0>         0.0043
     30 C20        -3.5766    5.2272    4.7764 C.ar      1 <0>        -0.1239
     31 C21        -2.2607    5.4170    5.1549 C.ar      1 <0>        -0.0572
     32 C22        -1.2728    4.5809    4.6688 C.ar      1 <0>        -0.0576
     33 Cl1         0.3785    4.8156    5.1503 Cl        1 <0>        -0.0351
     34 Cl2        -5.5613    3.9695    3.4314 Cl        1 <0>        -0.0510
     35 H1         -2.0296    1.5752   -0.8224 H         1 <0>         0.1456
     36 H2         -1.3870    3.2569    0.8552 H         1 <0>         0.1483
     37 H3         -0.6622    0.1482    3.6969 H         1 <0>         0.1504
     38 H4         -1.3009   -1.5355    2.0198 H         1 <0>         0.1329
     39 H5         -2.3006   -0.7669   -1.3621 H         1 <0>         0.4340
     40 H6         -7.2083   -2.6318   -0.5289 H         1 <0>         0.1146
     41 H7         -6.7084   -2.8827   -2.2187 H         1 <0>         0.1034
     42 H8         -7.2674   -5.2909   -2.0264 H         1 <0>         0.0614
     43 H9         -7.7674   -5.0399   -0.3366 H         1 <0>         0.1032
     44 H10        -9.7713   -6.0233   -2.4419 H         1 <0>         0.0568
     45 H11        -9.8948   -5.7476   -0.6850 H         1 <0>         0.1053
     46 H12       -12.0982   -5.5685   -1.9452 H         1 <0>         0.0907
     47 H13       -11.6689   -4.1333   -0.9877 H         1 <0>         0.0806
     48 H14       -12.3329   -3.7265   -3.4443 H         1 <0>         0.4081
     49 H15        -8.4073   -2.7475   -3.1903 H         1 <0>         0.1129
     50 H16        -8.5067   -4.4166   -3.7953 H         1 <0>         0.0802
     51 H17        -4.0588   -0.8739   -0.8640 H         1 <0>         0.4271
     52 H18        -5.6712   -1.2509   -1.1482 H         1 <0>         0.4294
     53 H19        -3.1816    2.5705    2.7319 H         1 <0>         0.1454
     54 H20        -4.3474    5.8786    5.1608 H         1 <0>         0.1505
     55 H21        -2.0047    6.2164    5.8345 H         1 <0>         0.1569
     56 H22        -5.2685   -4.6837   -0.5877 H         1 <0>         0.4495
     57 H23        -1.2380   -5.6295    0.9427 H         1 <0>         0.4685
@<TRIPOS>BOND
     1    1    6 ar
     2    1    2 ar
     3    1   35 1
     4    2    3 ar
     5    2   36 1
     6    3    4 ar
     7    3   26 1
     8    4    5 ar
     9    4   37 1
    10    5    6 ar
    11    5   38 1
    12    6    7 1
    13    7    8 1
    14    7   39 1
    15    8   12 1
    16    8    9 2
    17    9   10 1
    18    9   14 1
    19   10   11 am
    20   10   13 2
    21   11   12 1
    22   11   57 1
    23   14   15 2
    24   14   25 1
    25   15   16 1
    26   15   56 1
    27   16   17 1
    28   16   40 1
    29   16   41 1
    30   17   18 1
    31   17   42 1
    32   17   43 1
    33   18   24 1
    34   18   19 1
    35   19   20 1
    36   19   44 1
    37   19   45 1
    38   20   21 1
    39   20   46 1
    40   20   47 1
    41   21   22 am
    42   21   48 1
    43   22   23 2
    44   22   24 1
    45   24   49 1
    46   24   50 1
    47   25   51 1
    48   25   52 1
    49   26   27 1
    50   27   32 ar
    51   27   28 ar
    52   28   29 ar
    53   28   53 1
    54   29   30 ar
    55   29   34 1
    56   30   31 ar
    57   30   54 1
    58   31   32 ar
    59   31   55 1
    60   32   33 1
@<TRIPOS>MOLECULE
CHEMBL422940
   44    46     0     0     0
SMALL
USER_CHARGES

@<TRIPOS>ATOM
      1 C1          0.2310    1.4885    0.9701 C.ar      1 <0>        -0.0882
      2 C2          1.0513    2.0365   -0.0005 C.ar      1 <0>        -0.1299
      3 C3          2.1738    1.3561   -0.4238 C.ar      1 <0>        -0.0622
      4 C4          2.4820    0.1112    0.1298 C.ar      1 <0>        -0.1620
      5 C5          1.6498   -0.4356    1.1094 C.ar      1 <0>        -0.0810
      6 C6          0.5303    0.2557    1.5229 C.ar      1 <0>        -0.1310
      7 C7          3.6825   -0.6238   -0.3190 C.2       1 <0>         0.4379
      8 O1          4.5866   -0.0302   -0.8735 O.2       1 <0>        -0.4423
      9 C8          3.7839   -2.0807   -0.0937 C.ar      1 <0>        -0.1542
     10 C9          2.6255   -2.8510    0.0432 C.ar      1 <0>        -0.0773
     11 C10         2.7192   -4.2118    0.2536 C.ar      1 <0>        -0.1252
     12 C11         3.9562   -4.8217    0.3304 C.ar      1 <0>        -0.0795
     13 C12         5.1216   -4.0645    0.1955 C.ar      1 <0>        -0.0328
     14 C13         5.0353   -2.6915   -0.0228 C.ar      1 <0>        -0.0448
     15 C14         6.4462   -4.7204    0.2787 C.2       1 <0>        -0.1195
     16 C15         6.8247   -5.6441   -0.6849 C.2       1 <0>         0.2172
     17 N1          5.9712   -5.9497   -1.7152 N.pl3     1 <0>        -0.8263
     18 S1          8.4012   -6.4249   -0.5859 S.3       1 <0>         0.0185
     19 C16         9.2680   -5.8150   -1.9935 C.ar      1 <0>        -0.1924
     20 C17         8.6794   -4.8651   -2.8153 C.ar      1 <0>        -0.0721
     21 C18         9.3613   -4.3882   -3.9190 C.ar      1 <0>        -0.1605
     22 C19        10.6304   -4.8555   -4.2080 C.ar      1 <0>        -0.0630
     23 C20        11.2247   -5.8025   -3.3949 C.ar      1 <0>        -0.1838
     24 C21        10.5507   -6.2819   -2.2816 C.ar      1 <0>         0.2482
     25 N2         11.1527   -7.2356   -1.4537 N.pl3     1 <0>        -0.8701
     26 C22         7.3367   -4.4016    1.3538 C.1       1 <0>         0.2684
     27 N3          8.0432   -4.1487    2.2067 N.1       1 <0>        -0.4207
     28 H1         -0.6445    2.0276    1.3008 H         1 <0>         0.1287
     29 H2          0.8117    2.9991   -0.4277 H         1 <0>         0.1308
     30 H3          2.8127    1.7845   -1.1818 H         1 <0>         0.1332
     31 H4          1.8821   -1.3978    1.5414 H         1 <0>         0.1367
     32 H5         -0.1142   -0.1661    2.2800 H         1 <0>         0.1308
     33 H6          1.6553   -2.3802   -0.0155 H         1 <0>         0.1380
     34 H7          1.8212   -4.8025    0.3590 H         1 <0>         0.1350
     35 H8          4.0222   -5.8870    0.4956 H         1 <0>         0.1328
     36 H9          5.9336   -2.1021   -0.1322 H         1 <0>         0.1349
     37 H10         5.1417   -5.4578   -1.8200 H         1 <0>         0.4063
     38 H11         6.1974   -6.6575   -2.3387 H         1 <0>         0.4115
     39 H12         7.6881   -4.4984   -2.5931 H         1 <0>         0.1248
     40 H13         8.9015   -3.6487   -4.5578 H         1 <0>         0.1253
     41 H14        11.1586   -4.4798   -5.0719 H         1 <0>         0.1275
     42 H15        12.2158   -6.1654   -3.6239 H         1 <0>         0.1290
     43 H16        10.6781   -7.5733   -0.6781 H         1 <0>         0.3991
     44 H17        12.0446   -7.5592   -1.6554 H         1 <0>         0.4040
@<TRIPOS>BOND
     1    1    6 ar
     2    1    2 ar
     3    1   28 1
     4    2    3 ar
     5    2   29 1
     6    3    4 ar
     7    3   30 1
     8    4    5 ar
     9    4    7 1
    10    5    6 ar
    11    5   31 1
    12    6   32 1
    13    7    8 2
    14    7    9 1
    15    9   14 ar
    16    9   10 ar
    17   10   11 ar
    18   10   33 1
    19   11   12 ar
    20   11   34 1
    21   12   13 ar
    22   12   35 1
    23   13   14 ar
    24   13   15 1
    25   14   36 1
    26   15   16 2
    27   15   26 1
    28   16   17 1
    29   16   18 1
    30   17   37 1
    31   17   38 1
    32   18   19 1
    33   19   24 ar
    34   19   20 ar
    35   20   21 ar
    36   20   39 1
    37   21   22 ar
    38   21   40 1
    39   22   23 ar
    40   22   41 1
    41   23   24 ar
    42   23   42 1
    43   24   25 1
    44   25   43 1
    45   25   44 1
    46   26   27 3
@<TRIPOS>MOLECULE
CHEMBL422940__1
   44    46     0     0     0
SMALL
USER_CHARGES

@<TRIPOS>ATOM
      1 C1         -0.4244    0.5953    1.6974 C.ar      1 <0>        -0.0893
      2 C2          0.3840    1.3505    0.8659 C.ar      1 <0>        -0.1304
      3 C3          1.5754    0.8336    0.4016 C.ar      1 <0>        -0.0629
      4 C4          1.9656   -0.4552    0.7729 C.ar      1 <0>        -0.1608
      5 C5          1.1450   -1.2117    1.6128 C.ar      1 <0>        -0.0805
      6 C6         -0.0440   -0.6823    2.0693 C.ar      1 <0>        -0.1315
      7 C7          3.2402   -1.0158    0.2791 C.2       1 <0>         0.4388
      8 O1          4.1123   -0.2745   -0.1299 O.2       1 <0>        -0.4453
      9 C8          3.4548   -2.4779    0.2825 C.ar      1 <0>        -0.1588
     10 C9          2.3607   -3.3468    0.2394 C.ar      1 <0>        -0.0756
     11 C10         2.5602   -4.7126    0.2424 C.ar      1 <0>        -0.1274
     12 C11         3.8401   -5.2300    0.2880 C.ar      1 <0>        -0.0549
     13 C12         4.9421   -4.3736    0.3314 C.ar      1 <0>        -0.0249
     14 C13         4.7493   -2.9942    0.3228 C.ar      1 <0>        -0.0454
     15 C14         6.3129   -4.9307    0.3807 C.2       1 <0>        -0.1212
     16 C15         6.8047   -5.6591   -0.6929 C.2       1 <0>         0.2128
     17 N1          8.0754   -6.1755   -0.6472 N.pl3     1 <0>        -0.8308
     18 S1          5.7979   -5.9212   -2.1149 S.3       1 <0>         0.0435
     19 C16         5.5077   -7.6592   -2.1174 C.ar      1 <0>        -0.1956
     20 C17         5.9869   -8.4460   -1.0801 C.ar      1 <0>        -0.0751
     21 C18         5.7581   -9.8091   -1.0842 C.ar      1 <0>        -0.1605
     22 C19         5.0524  -10.3930   -2.1204 C.ar      1 <0>        -0.0632
     23 C20         4.5715   -9.6168   -3.1585 C.ar      1 <0>        -0.1832
     24 C21         4.7905   -8.2473   -3.1595 C.ar      1 <0>         0.2498
     25 N2          4.2995   -7.4590   -4.2057 N.pl3     1 <0>        -0.8697
     26 C22         7.1311   -4.7177    1.5364 C.1       1 <0>         0.2609
     27 N3          7.7803   -4.5487    2.4532 N.1       1 <0>        -0.4271
     28 H1         -1.3543    1.0065    2.0614 H         1 <0>         0.1280
     29 H2          0.0810    2.3468    0.5797 H         1 <0>         0.1301
     30 H3          2.2049    1.4238   -0.2478 H         1 <0>         0.1329
     31 H4          1.4404   -2.2089    1.9035 H         1 <0>         0.1374
     32 H5         -0.6797   -1.2662    2.7185 H         1 <0>         0.1303
     33 H6          1.3574   -2.9488    0.2040 H         1 <0>         0.1358
     34 H7          1.7116   -5.3798    0.2094 H         1 <0>         0.1325
     35 H8          3.9888   -6.2997    0.2905 H         1 <0>         0.1273
     36 H9          5.5986   -2.3276    0.3517 H         1 <0>         0.1317
     37 H10         8.6009   -6.0996    0.1646 H         1 <0>         0.4038
     38 H11         8.4481   -6.6165   -1.4267 H         1 <0>         0.4121
     39 H12         6.5390   -7.9935   -0.2697 H         1 <0>         0.1230
     40 H13         6.1318  -10.4201   -0.2759 H         1 <0>         0.1240
     41 H14         4.8768  -11.4586   -2.1188 H         1 <0>         0.1269
     42 H15         4.0211  -10.0763   -3.9661 H         1 <0>         0.1287
     43 H16         4.4575   -6.5020   -4.2073 H         1 <0>         0.3996
     44 H17         3.8010   -7.8695   -4.9296 H         1 <0>         0.4041
@<TRIPOS>BOND
     1    1    6 ar
     2    1    2 ar
     3    1   28 1
     4    2    3 ar
     5    2   29 1
     6    3    4 ar
     7    3   30 1
     8    4    5 ar
     9    4    7 1
    10    5    6 ar
    11    5   31 1
    12    6   32 1
    13    7    8 2
    14    7    9 1
    15    9   14 ar
    16    9   10 ar
    17   10   11 ar
    18   10   33 1
    19   11   12 ar
    20   11   34 1
    21   12   13 ar
    22   12   35 1
    23   13   14 ar
    24   13   15 1
    25   14   36 1
    26   15   16 2
    27   15   26 1
    28   16   17 1
    29   16   18 1
    30   17   37 1
    31   17   38 1
    32   18   19 1
    33   19   24 ar
    34   19   20 ar
    35   20   21 ar
    36   20   39 1
    37   21   22 ar
    38   21   40 1
    39   22   23 ar
    40   22   41 1
    41   23   24 ar
    42   23   42 1
    43   24   25 1
    44   25   43 1
    45   25   44 1
    46   26   27 3
@<TRIPOS>MOLECULE
CHEMBL442235
   31    32     0     0     0
SMALL
USER_CHARGES

@<TRIPOS>ATOM
      1 C1         -0.2377    1.5540   -0.0612 C.3       1 <0>         0.0421
      2 N1         -0.1539    0.0917   -0.0920 N.am      1 <0>        -0.4940
      3 C2         -1.2627   -0.6300    0.1556 C.2       1 <0>         0.1945
      4 C3         -1.2215   -2.0076    0.1352 C.2       1 <0>        -0.2610
      5 C4          0.0544   -2.6712   -0.1622 C.2       1 <0>         0.2874
      6 C5          1.1609   -1.8773   -0.4092 C.2       1 <0>        -0.2519
      7 C6          1.0253   -0.4862   -0.3718 C.2       1 <0>         0.5269
      8 O1          1.9986    0.2163   -0.5933 O.2       1 <0>        -0.5311
      9 N2          0.1476   -4.0480   -0.1941 N.pl3     1 <0>        -0.6773
     10 C7         -0.5122   -4.7709   -1.1941 C.ar      1 <0>         0.2330
     11 C8         -1.1713   -4.1017   -2.2166 C.ar      1 <0>        -0.1520
     12 C9         -1.8219   -4.8178   -3.2025 C.ar      1 <0>        -0.0474
     13 C10        -1.8179   -6.2009   -3.1729 C.ar      1 <0>        -0.1247
     14 C11        -1.1626   -6.8721   -2.1562 C.ar      1 <0>        -0.0745
     15 C12        -0.5045   -6.1615   -1.1692 C.ar      1 <0>         0.0453
     16 F1          0.1403   -6.8169   -0.1793 F         1 <0>        -0.1357
     17 I1         -2.8070   -7.2812   -4.6707 I         1 <0>        -0.0357
     18 C13        -2.4334   -2.7988    0.4069 C.2       1 <0>         0.5773
     19 O2         -2.3906   -4.0133    0.3576 O.2       1 <0>        -0.5164
     20 N3         -3.5901   -2.1771    0.7101 N.am      1 <0>        -0.8553
     21 H1          0.7406    1.9788   -0.2864 H         1 <0>         0.1106
     22 H2         -0.9603    1.8923   -0.8038 H         1 <0>         0.0863
     23 H3         -0.5556    1.8789    0.9295 H         1 <0>         0.0863
     24 H4         -2.1925   -0.1253    0.3726 H         1 <0>         0.1725
     25 H5          2.1173   -2.3271   -0.6315 H         1 <0>         0.1621
     26 H6          0.6705   -4.5143    0.4767 H         1 <0>         0.4212
     27 H7         -1.1756   -3.0220   -2.2409 H         1 <0>         0.1311
     28 H8         -2.3348   -4.2971   -3.9976 H         1 <0>         0.1338
     29 H9         -1.1613   -7.9519   -2.1358 H         1 <0>         0.1417
     30 H10        -3.6085   -1.2135    0.8202 H         1 <0>         0.3955
     31 H11        -4.4043   -2.6932    0.8182 H         1 <0>         0.4096
@<TRIPOS>BOND
     1    1    2 1
     2    1   21 1
     3    1   22 1
     4    1   23 1
     5    2    7 am
     6    2    3 1
     7    3    4 2
     8    3   24 1
     9    4    5 1
    10    4   18 1
    11    5    6 2
    12    5    9 1
    13    6    7 1
    14    6   25 1
    15    7    8 2
    16    9   10 1
    17    9   26 1
    18   10   15 ar
    19   10   11 ar
    20   11   12 ar
    21   11   27 1
    22   12   13 ar
    23   12   28 1
    24   13   14 ar
    25   13   17 1
    26   14   15 ar
    27   14   29 1
    28   15   16 1
    29   18   19 2
    30   18   20 am
    31   20   30 1
    32   20   31 1
@<TRIPOS>MOLECULE
CHEMBL106489
   71    75     0     0     0
SMALL
USER_CHARGES

@<TRIPOS>ATOM
      1 C1          7.7095   -4.1311    2.8046 C.3       1 <0>        -0.0761
      2 C2          6.7780   -4.7476    1.7930 C.2       1 <0>        -0.0174
      3 C3          5.6469   -5.4246    2.0556 C.2       1 <0>        -0.0178
      4 N1          5.1046   -5.8106    0.8889 N.2       1 <0>        -0.4718
      5 C4          5.8618   -5.3958   -0.0999 C.2       1 <0>         0.1732
      6 N2          6.9204   -4.7192    0.4243 N.pl3     1 <0>        -0.4451
      7 C5          8.0064   -4.0836   -0.3258 C.3       1 <0>         0.0692
      8 S1          5.5564   -5.6633   -1.8145 S.3       1 <0>         0.0914
      9 C6          3.9784   -6.4466   -1.8492 C.ar      1 <0>        -0.1702
     10 C7          2.8615   -5.7404   -2.2774 C.ar      1 <0>        -0.0021
     11 C8          1.6253   -6.3539   -2.3047 C.ar      1 <0>        -0.1847
     12 C9          1.4975   -7.6781   -1.9040 C.ar      1 <0>         0.2468
     13 C10         2.6137   -8.3852   -1.4757 C.ar      1 <0>        -0.1836
     14 C11         3.8520   -7.7733   -1.4536 C.ar      1 <0>         0.0765
     15 Cl1         5.2486   -8.6585   -0.9247 Cl        1 <0>        -0.0387
     16 N3          0.2439   -8.2994   -1.9314 N.pl3     1 <0>        -0.6975
     17 C12         0.0900   -9.5663   -1.4059 C.ar      1 <0>         0.2556
     18 C13         0.3416  -10.7172   -2.1883 C.ar      1 <0>        -0.0971
     19 C14         0.7564  -10.6068   -3.5239 C.ar      1 <0>        -0.1606
     20 C15         0.9928  -11.7338   -4.2568 C.ar      1 <0>         0.1298
     21 C16         0.8250  -13.0039   -3.6872 C.ar      1 <0>         0.1595
     22 C17         0.4186  -13.1395   -2.3794 C.ar      1 <0>        -0.1768
     23 C18         0.1697  -11.9956   -1.6052 C.ar      1 <0>         0.1673
     24 N4         -0.2265  -12.1081   -0.3288 N.ar      1 <0>        -0.4599
     25 C19        -0.4667  -11.0606    0.4179 C.ar      1 <0>         0.1789
     26 C20        -0.3158   -9.7548   -0.0758 C.ar      1 <0>        -0.0833
     27 C21        -0.5795   -8.6276    0.7670 C.1       1 <0>         0.2515
     28 N5         -0.7887   -7.7333    1.4356 N.1       1 <0>        -0.3899
     29 O1          1.0657  -14.1126   -4.4344 O.3       1 <0>        -0.2920
     30 C22         0.8769  -15.3778   -3.7975 C.3       1 <0>         0.0546
     31 C23         1.1935  -16.4999   -4.7882 C.3       1 <0>        -0.1159
     32 C24         0.9913  -17.8545   -4.1063 C.3       1 <0>         0.0585
     33 N6          1.2953  -18.9318   -5.0576 N.3       1 <0>        -0.5362
     34 C25         0.3211  -18.9530   -6.1584 C.3       1 <0>         0.0125
     35 C26         0.7087  -20.0490   -7.1547 C.3       1 <0>         0.0624
     36 O2          0.7812  -21.3033   -6.4715 O.3       1 <0>        -0.3853
     37 C27         1.7209  -21.3184   -5.3936 C.3       1 <0>         0.0626
     38 C28         1.3435  -20.2353   -4.3795 C.3       1 <0>         0.0173
     39 O3          1.3944  -11.6237   -5.5513 O.3       1 <0>        -0.2972
     40 C29         1.5465  -10.3022   -6.0732 C.3       1 <0>         0.0221
     41 H1          7.3963   -3.1077    3.0107 H         1 <0>         0.0732
     42 H2          7.6811   -4.7124    3.7262 H         1 <0>         0.0837
     43 H3          8.7250   -4.1275    2.4085 H         1 <0>         0.0644
     44 H4          5.2432   -5.6246    3.0372 H         1 <0>         0.1695
     45 H5          8.8138   -4.8007   -0.4741 H         1 <0>         0.0799
     46 H6          7.6330   -3.7515   -1.2946 H         1 <0>         0.0895
     47 H7          8.3804   -3.2257    0.2329 H         1 <0>         0.0895
     48 H8          2.9603   -4.7109   -2.5886 H         1 <0>         0.1446
     49 H9          0.7571   -5.8044   -2.6372 H         1 <0>         0.1383
     50 H10         2.5141   -9.4143   -1.1636 H         1 <0>         0.1357
     51 H11        -0.5168   -7.8397   -2.3198 H         1 <0>         0.4220
     52 H12         0.8880   -9.6326   -3.9712 H         1 <0>         0.1483
     53 H13         0.2917  -14.1225   -1.9505 H         1 <0>         0.1565
     54 H14        -0.7840  -11.2040    1.4402 H         1 <0>         0.1746
     55 H15         1.5419  -15.4544   -2.9372 H         1 <0>         0.0712
     56 H16        -0.1577  -15.4669   -3.4660 H         1 <0>         0.0685
     57 H17         0.5285  -16.4233   -5.6485 H         1 <0>         0.0765
     58 H18         2.2280  -16.4108   -5.1197 H         1 <0>         0.0866
     59 H19         1.6563  -17.9310   -3.2460 H         1 <0>         0.0818
     60 H20        -0.0433  -17.9436   -3.7749 H         1 <0>         0.0405
     61 H21        -0.6730  -19.1576   -5.7608 H         1 <0>         0.0446
     62 H22         0.3204  -17.9866   -6.6625 H         1 <0>         0.0904
     63 H23        -0.0420  -20.1065   -7.9428 H         1 <0>         0.0992
     64 H24         1.6796  -19.8162   -7.5923 H         1 <0>         0.0611
     65 H25         1.7022  -22.2941   -4.9080 H         1 <0>         0.0997
     66 H26         2.7212  -21.1226   -5.7800 H         1 <0>         0.0611
     67 H27         2.0892  -20.2049   -3.5850 H         1 <0>         0.0883
     68 H28         0.3658  -20.4604   -3.9535 H         1 <0>         0.0448
     69 H29         1.8700  -10.3571   -7.1127 H         1 <0>         0.1073
     70 H30         0.5929   -9.7772   -6.0168 H         1 <0>         0.0582
     71 H31         2.2926   -9.7642   -5.4884 H         1 <0>         0.0599
@<TRIPOS>BOND
     1    1    2 1
     2    1   41 1
     3    1   42 1
     4    1   43 1
     5    2    6 1
     6    2    3 2
     7    3    4 1
     8    3   44 1
     9    4    5 2
    10    5    6 1
    11    5    8 1
    12    6    7 1
    13    7   45 1
    14    7   46 1
    15    7   47 1
    16    8    9 1
    17    9   14 ar
    18    9   10 ar
    19   10   11 ar
    20   10   48 1
    21   11   12 ar
    22   11   49 1
    23   12   13 ar
    24   12   16 1
    25   13   14 ar
    26   13   50 1
    27   14   15 1
    28   16   17 1
    29   16   51 1
    30   17   26 ar
    31   17   18 ar
    32   18   23 ar
    33   18   19 ar
    34   19   20 ar
    35   19   52 1
    36   20   21 ar
    37   20   39 1
    38   21   22 ar
    39   21   29 1
    40   22   23 ar
    41   22   53 1
    42   23   24 ar
    43   24   25 ar
    44   25   26 ar
    45   25   54 1
    46   26   27 1
    47   27   28 3
    48   29   30 1
    49   30   31 1
    50   30   55 1
    51   30   56 1
    52   31   32 1
    53   31   57 1
    54   31   58 1
    55   32   33 1
    56   32   59 1
    57   32   60 1
    58   33   38 1
    59   33   34 1
    60   34   35 1
    61   34   61 1
    62   34   62 1
    63   35   36 1
    64   35   63 1
    65   35   64 1
    66   36   37 1
    67   37   38 1
    68   37   65 1
    69   37   66 1
    70   38   67 1
    71   38   68 1
    72   39   40 1
    73   40   69 1
    74   40   70 1
    75   40   71 1
@<TRIPOS>MOLECULE
CHEMBL106489__1
   72    76     0     0     0
SMALL
USER_CHARGES

@<TRIPOS>ATOM
      1 C1          7.7095   -4.1311    2.8046 C.3       1 <0>        -0.0776
      2 C2          6.7780   -4.7476    1.7930 C.2       1 <0>        -0.0138
      3 C3          5.6469   -5.4246    2.0556 C.2       1 <0>        -0.0188
      4 N1          5.1046   -5.8106    0.8889 N.2       1 <0>        -0.4726
      5 C4          5.8618   -5.3958   -0.0999 C.2       1 <0>         0.1708
      6 N2          6.9203   -4.7191    0.4243 N.pl3     1 <0>        -0.4441
      7 C5          8.0064   -4.0836   -0.3259 C.3       1 <0>         0.0684
      8 S1          5.5564   -5.6633   -1.8145 S.3       1 <0>         0.0926
      9 C6          3.9784   -6.4466   -1.8493 C.ar      1 <0>        -0.1668
     10 C7          2.8615   -5.7404   -2.2774 C.ar      1 <0>        -0.0012
     11 C8          1.6253   -6.3539   -2.3047 C.ar      1 <0>        -0.1820
     12 C9          1.4975   -7.6781   -1.9040 C.ar      1 <0>         0.2427
     13 C10         2.6137   -8.3852   -1.4757 C.ar      1 <0>        -0.1848
     14 C11         3.8520   -7.7733   -1.4536 C.ar      1 <0>         0.0754
     15 Cl1         5.2486   -8.6585   -0.9247 Cl        1 <0>        -0.0387
     16 N3          0.2439   -8.2994   -1.9314 N.pl3     1 <0>        -0.7000
     17 C12         0.0900   -9.5663   -1.4059 C.ar      1 <0>         0.2587
     18 C13         0.3416  -10.7172   -2.1883 C.ar      1 <0>        -0.0939
     19 C14         0.7564  -10.6068   -3.5239 C.ar      1 <0>        -0.1516
     20 C15         0.9928  -11.7338   -4.2568 C.ar      1 <0>         0.1262
     21 C16         0.8250  -13.0039   -3.6872 C.ar      1 <0>         0.1493
     22 C17         0.4186  -13.1395   -2.3794 C.ar      1 <0>        -0.1689
     23 C18         0.1697  -11.9956   -1.6052 C.ar      1 <0>         0.1618
     24 N4         -0.2265  -12.1081   -0.3288 N.ar      1 <0>        -0.4627
     25 C19        -0.4667  -11.0606    0.4179 C.ar      1 <0>         0.1842
     26 C20        -0.3158   -9.7548   -0.0758 C.ar      1 <0>        -0.0734
     27 C21        -0.5795   -8.6276    0.7670 C.1       1 <0>         0.2437
     28 N5         -0.7887   -7.7333    1.4356 N.1       1 <0>        -0.3772
     29 O1          1.0657  -14.1126   -4.4344 O.3       1 <0>        -0.2937
     30 C22         0.8769  -15.3778   -3.7975 C.3       1 <0>         0.0563
     31 C23         1.1935  -16.4999   -4.7882 C.3       1 <0>        -0.1505
     32 C24         0.9913  -17.8545   -4.1063 C.3       1 <0>        -0.0062
     33 N6          1.2953  -18.9318   -5.0576 N.4       1 <0>        -0.3843
     34 C25         0.3221  -18.9027   -6.1581 C.3       1 <0>        -0.0501
     35 C26         0.6411  -20.0259   -7.1479 C.3       1 <0>         0.0361
     36 O2          0.6197  -21.2802   -6.4608 O.3       1 <0>        -0.3563
     37 C27         1.5349  -21.3492   -5.3638 C.3       1 <0>         0.0355
     38 C28         1.2176  -20.2284   -4.3706 C.3       1 <0>        -0.0434
     39 O3          1.3944  -11.6237   -5.5513 O.3       1 <0>        -0.3014
     40 C29         1.5465  -10.3022   -6.0732 C.3       1 <0>         0.0209
     41 H1          7.3963   -3.1077    3.0107 H         1 <0>         0.0746
     42 H2          7.6811   -4.7124    3.7262 H         1 <0>         0.0844
     43 H3          8.7250   -4.1275    2.4085 H         1 <0>         0.0652
     44 H4          5.2432   -5.6246    3.0372 H         1 <0>         0.1701
     45 H5          8.8138   -4.8007   -0.4741 H         1 <0>         0.0803
     46 H6          7.6330   -3.7515   -1.2946 H         1 <0>         0.0898
     47 H7          8.3804   -3.2257    0.2329 H         1 <0>         0.0909
     48 H8          2.9603   -4.7109   -2.5886 H         1 <0>         0.1464
     49 H9          0.7571   -5.8044   -2.6373 H         1 <0>         0.1394
     50 H10         2.5141   -9.4143   -1.1636 H         1 <0>         0.1335
     51 H11        -0.5168   -7.8397   -2.3198 H         1 <0>         0.4233
     52 H12         0.8880   -9.6326   -3.9712 H         1 <0>         0.1512
     53 H13         0.2917  -14.1225   -1.9505 H         1 <0>         0.1539
     54 H14        -0.7840  -11.2040    1.4402 H         1 <0>         0.1777
     55 H15         1.5419  -15.4544   -2.9372 H         1 <0>         0.0792
     56 H16        -0.1577  -15.4669   -3.4660 H         1 <0>         0.0788
     57 H17         0.5285  -16.4233   -5.6485 H         1 <0>         0.1005
     58 H18         2.2280  -16.4108   -5.1197 H         1 <0>         0.1015
     59 H19         1.6563  -17.9310   -3.2460 H         1 <0>         0.1385
     60 H20        -0.0433  -17.9436   -3.7749 H         1 <0>         0.1363
     61 H21        -0.6824  -19.0440   -5.7591 H         1 <0>         0.1408
     62 H22         0.3790  -17.9413   -6.6685 H         1 <0>         0.1447
     63 H23        -0.1049  -20.0335   -7.9427 H         1 <0>         0.1427
     64 H24         1.6296  -19.8629   -7.5773 H         1 <0>         0.0820
     65 H25         1.4358  -22.3144   -4.8672 H         1 <0>         0.1430
     66 H26         2.5540  -21.2315   -5.7320 H         1 <0>         0.0819
     67 H27         1.9392  -20.2511   -3.5540 H         1 <0>         0.1442
     68 H28         0.2128  -20.3692   -3.9723 H         1 <0>         0.1403
     69 H29         0.5929   -9.7772   -6.0168 H         1 <0>         0.0606
     70 H30         2.2926   -9.7642   -5.4884 H         1 <0>         0.0622
     71 H31         1.8700  -10.3571   -7.1127 H         1 <0>         0.1091
     72 H32         2.2252  -18.8020   -5.4270 H         1 <0>         0.4247
@<TRIPOS>BOND
     1    1    2 1
     2    1   41 1
     3    1   42 1
     4    1   43 1
     5    2    6 1
     6    2    3 2
     7    3    4 1
     8    3   44 1
     9    4    5 2
    10    5    6 1
    11    5    8 1
    12    6    7 1
    13    7   45 1
    14    7   46 1
    15    7   47 1
    16    8    9 1
    17    9   14 ar
    18    9   10 ar
    19   10   11 ar
    20   10   48 1
    21   11   12 ar
    22   11   49 1
    23   12   13 ar
    24   12   16 1
    25   13   14 ar
    26   13   50 1
    27   14   15 1
    28   16   17 1
    29   16   51 1
    30   17   26 ar
    31   17   18 ar
    32   18   23 ar
    33   18   19 ar
    34   19   20 ar
    35   19   52 1
    36   20   21 ar
    37   20   39 1
    38   21   22 ar
    39   21   29 1
    40   22   23 ar
    41   22   53 1
    42   23   24 ar
    43   24   25 ar
    44   25   26 ar
    45   25   54 1
    46   26   27 1
    47   27   28 3
    48   29   30 1
    49   30   31 1
    50   30   55 1
    51   30   56 1
    52   31   32 1
    53   31   57 1
    54   31   58 1
    55   32   33 1
    56   32   59 1
    57   32   60 1
    58   33   38 1
    59   33   34 1
    60   33   72 1
    61   34   35 1
    62   34   61 1
    63   34   62 1
    64   35   36 1
    65   35   63 1
    66   35   64 1
    67   36   37 1
    68   37   38 1
    69   37   65 1
    70   37   66 1
    71   38   67 1
    72   38   68 1
    73   39   40 1
    74   40   69 1
    75   40   70 1
    76   40   71 1
@<TRIPOS>MOLECULE
CHEMBL1169631
   45    47     0     0     0
SMALL
USER_CHARGES

@<TRIPOS>ATOM
      1 C1         -0.1441    1.5594   -0.9383 C.3       1 <0>        -0.1906
      2 C2         -0.2012    0.0670   -1.1395 C.2       1 <0>         0.4166
      3 O1          0.7288   -0.5110   -1.6661 O.2       1 <0>        -0.4734
      4 C3         -1.3332   -0.6582   -0.7168 C.2       1 <0>        -0.0869
      5 C4         -2.4551   -0.1274   -0.1137 C.2       1 <0>        -0.0670
      6 C5         -3.3346   -1.1970    0.1401 C.2       1 <0>        -0.2275
      7 C6         -2.7142   -2.3621   -0.3220 C.2       1 <0>         0.3529
      8 N1         -1.5144   -2.0282   -0.8408 N.pl3     1 <0>        -0.4051
      9 C7         -0.5557   -2.9623   -1.4362 C.3       1 <0>         0.0575
     10 N2         -3.2392   -3.6291   -0.2632 N.pl3     1 <0>        -0.6483
     11 C8         -2.5682   -4.6323    0.4450 C.ar      1 <0>         0.1906
     12 C9         -1.3888   -4.3399    1.1166 C.ar      1 <0>        -0.1576
     13 C10        -0.7287   -5.3320    1.8153 C.ar      1 <0>        -0.0456
     14 C11        -1.2406   -6.6168    1.8466 C.ar      1 <0>        -0.1198
     15 C12        -2.4154   -6.9131    1.1790 C.ar      1 <0>        -0.0738
     16 C13        -3.0844   -5.9233    0.4824 C.ar      1 <0>         0.0511
     17 F1         -4.2345   -6.2112   -0.1654 F         1 <0>        -0.1305
     18 I1         -0.2340   -8.1173    2.9068 I         1 <0>        -0.0251
     19 C14        -4.6571   -1.1063    0.7727 C.2       1 <0>         0.6050
     20 O2         -5.1391   -2.0816    1.3176 O.2       1 <0>        -0.5320
     21 N3         -5.3368    0.0573    0.7495 N.am      1 <0>        -0.6124
     22 C15        -4.9254    1.2786    0.0334 C.3       1 <0>         0.0969
     23 C16        -6.2416    2.0585   -0.2091 C.3       1 <0>        -0.1280
     24 C17        -7.0211    1.7691    1.1009 C.3       1 <0>         0.0917
     25 H1         -6.7092    2.4491    1.8936 H         1 <0>         0.0781
     26 C18        -6.6145    0.3170    1.4289 C.3       1 <0>         0.0780
     27 O3         -8.4301    1.8630    0.8821 O.3       1 <0>        -0.5552
     28 H2          0.8003    1.9423   -1.3249 H         1 <0>         0.0894
     29 H3         -0.9716    2.0296   -1.4697 H         1 <0>         0.0959
     30 H4         -0.2199    1.7858    0.1252 H         1 <0>         0.0959
     31 H5         -2.6263    0.9130    0.1198 H         1 <0>         0.1643
     32 H6          0.1550   -3.2871   -0.6763 H         1 <0>         0.0870
     33 H7         -1.0884   -3.8282   -1.8293 H         1 <0>         0.0856
     34 H8         -0.0205   -2.4665   -2.2461 H         1 <0>         0.1097
     35 H9         -4.0753   -3.8290   -0.7125 H         1 <0>         0.4291
     36 H10        -0.9875   -3.3375    1.0925 H         1 <0>         0.1360
     37 H11         0.1887   -5.1043    2.3376 H         1 <0>         0.1395
     38 H12        -2.8126   -7.9170    1.2053 H         1 <0>         0.1470
     39 H13        -4.2435    1.8668    0.6475 H         1 <0>         0.0759
     40 H14        -4.4562    1.0216   -0.9163 H         1 <0>         0.0882
     41 H15        -6.0486    3.1254   -0.3212 H         1 <0>         0.0935
     42 H16        -6.7742    1.6663   -1.0754 H         1 <0>         0.0880
     43 H17        -7.3749   -0.3740    1.0651 H         1 <0>         0.0790
     44 H18        -6.4916    0.2028    2.5059 H         1 <0>         0.0720
     45 H19        -8.9629    1.6906    1.6704 H         1 <0>         0.3844
@<TRIPOS>BOND
     1    1    2 1
     2    1   28 1
     3    1   29 1
     4    1   30 1
     5    2    3 2
     6    2    4 1
     7    4    8 1
     8    4    5 2
     9    5    6 1
    10    5   31 1
    11    6    7 2
    12    6   19 1
    13    7    8 1
    14    7   10 1
    15    8    9 1
    16    9   32 1
    17    9   33 1
    18    9   34 1
    19   10   11 1
    20   10   35 1
    21   11   16 ar
    22   11   12 ar
    23   12   13 ar
    24   12   36 1
    25   13   14 ar
    26   13   37 1
    27   14   15 ar
    28   14   18 1
    29   15   16 ar
    30   15   38 1
    31   16   17 1
    32   19   20 2
    33   19   21 am
    34   21   26 1
    35   21   22 1
    36   22   23 1
    37   22   39 1
    38   22   40 1
    39   23   24 1
    40   23   41 1
    41   23   42 1
    42   24   25 1
    43   24   26 1
    44   24   27 1
    45   26   43 1
    46   26   44 1
    47   27   45 1
@<TRIPOS>MOLECULE
CHEMBL1170802
   39    40     0     0     0
SMALL
USER_CHARGES

@<TRIPOS>ATOM
      1 C1         -0.5160    1.4642    0.0284 C.3       1 <0>        -0.1783
      2 C2         -0.4459   -0.0411    0.0109 C.2       1 <0>         0.5227
      3 O1         -0.5167   -0.6613    1.0454 O.2       1 <0>        -0.4666
      4 N1         -0.3042   -0.6955   -1.1588 N.am      1 <0>        -0.4283
      5 C3         -0.2086   -0.1018   -2.3782 C.2       1 <0>         0.0764
      6 C4         -0.0753   -1.0776   -3.3238 C.2       1 <0>        -0.2016
      7 C5         -0.0935   -2.3602   -2.6025 C.2       1 <0>         0.1729
      8 C6         -0.2291   -2.0625   -1.2943 C.2       1 <0>        -0.0706
      9 N2          0.0145   -3.6401   -3.1645 N.pl3     1 <0>        -0.6468
     10 C7          0.1421   -4.7591   -2.3357 C.ar      1 <0>         0.1752
     11 C8          0.7608   -4.6416   -1.0981 C.ar      1 <0>        -0.1519
     12 C9          0.8851   -5.7486   -0.2812 C.ar      1 <0>        -0.0542
     13 C10         0.3942   -6.9743   -0.6940 C.ar      1 <0>        -0.1128
     14 C11        -0.2226   -7.0966   -1.9263 C.ar      1 <0>        -0.0824
     15 C12        -0.3555   -5.9915   -2.7467 C.ar      1 <0>         0.0586
     16 F1         -0.9628   -6.1095   -3.9477 F         1 <0>        -0.1291
     17 I1          0.5858   -8.6494    0.5495 I         1 <0>        -0.0273
     18 C13         0.0599   -0.8849   -4.7768 C.2       1 <0>         0.6035
     19 O2          0.1713   -1.8487   -5.5103 O.2       1 <0>        -0.5166
     20 N3          0.0601    0.3595   -5.2944 N.am      1 <0>        -0.5969
     21 O3          0.1901    0.5448   -6.6922 O.3       1 <0>        -0.1269
     22 C14         0.1746    1.9141   -7.1009 C.3       1 <0>         0.0292
     23 C15         0.3210    1.9940   -8.6217 C.3       1 <0>         0.0834
     24 O4         -0.8217    1.4014   -9.2421 O.3       1 <0>        -0.5669
     25 H1          0.4890    1.8736    0.1304 H         1 <0>         0.1114
     26 H2         -0.9597    1.8181   -0.9022 H         1 <0>         0.0919
     27 H3         -1.1280    1.7896    0.8696 H         1 <0>         0.1104
     28 H4         -0.2340    0.9613   -2.5669 H         1 <0>         0.1903
     29 H5         -0.2736   -2.7785   -0.4870 H         1 <0>         0.1898
     30 H6          0.0006   -3.7494   -4.1282 H         1 <0>         0.4307
     31 H7          1.1448   -3.6855   -0.7745 H         1 <0>         0.1506
     32 H8          1.3666   -5.6571    0.6812 H         1 <0>         0.1401
     33 H9         -0.6044   -8.0549   -2.2459 H         1 <0>         0.1459
     34 H10        -0.0287    1.1281   -4.7094 H         1 <0>         0.4039
     35 H11        -0.7684    2.3717   -6.8021 H         1 <0>         0.0717
     36 H12         1.0015    2.4438   -6.6279 H         1 <0>         0.0783
     37 H13         0.3984    3.0382   -8.9249 H         1 <0>         0.0735
     38 H14         1.2196    1.4590   -8.9289 H         1 <0>         0.0608
     39 H15        -0.7968    1.4168  -10.2087 H         1 <0>         0.3860
@<TRIPOS>BOND
     1    1    2 1
     2    1   25 1
     3    1   26 1
     4    1   27 1
     5    2    3 2
     6    2    4 am
     7    4    8 1
     8    4    5 1
     9    5    6 2
    10    5   28 1
    11    6    7 1
    12    6   18 1
    13    7    8 2
    14    7    9 1
    15    8   29 1
    16    9   10 1
    17    9   30 1
    18   10   15 ar
    19   10   11 ar
    20   11   12 ar
    21   11   31 1
    22   12   13 ar
    23   12   32 1
    24   13   14 ar
    25   13   17 1
    26   14   15 ar
    27   14   33 1
    28   15   16 1
    29   18   19 2
    30   18   20 am
    31   20   21 1
    32   20   34 1
    33   21   22 1
    34   22   23 1
    35   22   35 1
    36   22   36 1
    37   23   24 1
    38   23   37 1
    39   23   38 1
    40   24   39 1
@<TRIPOS>MOLECULE
CHEMBL322395
   60    64     0     0     0
SMALL
USER_CHARGES

@<TRIPOS>ATOM
      1 C1          3.3554   -2.8779   -0.5533 C.3       1 <0>         0.0233
      2 O1          1.9280   -2.8104   -0.5623 O.3       1 <0>        -0.2951
      3 C2          1.3583   -1.9052   -1.4014 C.ar      1 <0>         0.1708
      4 C3          2.1486   -1.1816   -2.2804 C.ar      1 <0>        -0.1893
      5 C4          1.5644   -0.2580   -3.1360 C.ar      1 <0>         0.1778
      6 C5          0.1882   -0.0612   -3.1090 C.ar      1 <0>        -0.0685
      7 C6         -0.5966   -0.7846   -2.2311 C.ar      1 <0>        -0.0515
      8 C7         -0.0161   -1.7094   -1.3820 C.ar      1 <0>        -0.0465
      9 Cl1        -1.0063   -2.6212   -0.2858 Cl        1 <0>        -0.0338
     10 Cl2        -0.5443    1.0940   -4.1780 Cl        1 <0>        -0.0391
     11 N1          2.3589    0.4741   -4.0238 N.pl3     1 <0>        -0.6680
     12 C8          2.4989    1.8371   -3.8612 C.ar      1 <0>         0.3183
     13 C9          2.8654    2.6686   -4.9458 C.ar      1 <0>        -0.1396
     14 C10         3.0972    2.1319   -6.2213 C.ar      1 <0>        -0.0752
     15 C11         3.4481    2.9504   -7.2493 C.ar      1 <0>        -0.1154
     16 C12         3.5824    4.3324   -7.0493 C.ar      1 <0>        -0.0011
     17 C13         3.3597    4.8884   -5.8020 C.ar      1 <0>        -0.0972
     18 C14         2.9966    4.0616   -4.7292 C.ar      1 <0>         0.1802
     19 N2          2.7756    4.5800   -3.5121 N.ar      1 <0>        -0.5003
     20 C15         2.4357    3.8345   -2.4919 C.ar      1 <0>         0.2172
     21 C16         2.2770    2.4449   -2.6163 C.ar      1 <0>        -0.1659
     22 C17         1.8982    1.6556   -1.4831 C.1       1 <0>         0.2538
     23 N3          1.5976    1.0295   -0.5842 N.1       1 <0>        -0.4069
     24 C18         3.9670    5.2054   -8.1851 C.ar      1 <0>        -0.0550
     25 C19         4.1086    6.5788   -7.9949 C.ar      1 <0>        -0.1014
     26 C20         4.4671    7.3862   -9.0552 C.ar      1 <0>        -0.1127
     27 C21         4.6855    6.8348  -10.3049 C.ar      1 <0>        -0.0702
     28 C22         4.5460    5.4724  -10.4995 C.ar      1 <0>        -0.0963
     29 C23         4.1939    4.6546   -9.4451 C.ar      1 <0>        -0.1022
     30 C24         5.0763    7.7218  -11.4589 C.3       1 <0>         0.0909
     31 N4          6.5401    7.8288  -11.5203 N.3       1 <0>        -0.5314
     32 C25         7.0660    8.5410  -10.3467 C.3       1 <0>         0.0131
     33 C26         8.5948    8.5774  -10.4213 C.3       1 <0>         0.0632
     34 O2          8.9926    9.1912  -11.6502 O.3       1 <0>        -0.3853
     35 C27         8.4983    8.5230  -12.8140 C.3       1 <0>         0.0632
     36 C28         6.9686    8.4860  -12.7636 C.3       1 <0>         0.0167
     37 H1          3.7099   -3.2043   -1.5310 H         1 <0>         0.0592
     38 H2          3.7643   -1.8928   -0.3287 H         1 <0>         0.0601
     39 H3          3.6807   -3.5882    0.2068 H         1 <0>         0.1092
     40 H4          3.2173   -1.3359   -2.2994 H         1 <0>         0.1503
     41 H5         -1.6654   -0.6306   -2.2109 H         1 <0>         0.1562
     42 H6          2.8116    0.0237   -4.7539 H         1 <0>         0.4219
     43 H7          2.9974    1.0693   -6.3866 H         1 <0>         0.1281
     44 H8          3.6254    2.5322   -8.2291 H         1 <0>         0.1347
     45 H9          3.4647    5.9533   -5.6557 H         1 <0>         0.1444
     46 H10         2.2688    4.3000   -1.5317 H         1 <0>         0.1685
     47 H11         3.9377    7.0105   -7.0198 H         1 <0>         0.1295
     48 H12         4.5771    8.4506   -8.9091 H         1 <0>         0.1230
     49 H13         4.7170    5.0473  -11.4775 H         1 <0>         0.1265
     50 H14         4.0896    3.5904   -9.5971 H         1 <0>         0.1277
     51 H15         4.7040    7.2928  -12.3892 H         1 <0>         0.0871
     52 H16         4.6451    8.7128  -11.3176 H         1 <0>         0.0470
     53 H17         6.6778    9.5594  -10.3348 H         1 <0>         0.0436
     54 H18         6.7582    8.0229   -9.4384 H         1 <0>         0.0912
     55 H19         8.9864    9.1536   -9.5830 H         1 <0>         0.0988
     56 H20         8.9855    7.5607  -10.3790 H         1 <0>         0.0600
     57 H21         8.8202    9.0599  -13.7063 H         1 <0>         0.0994
     58 H22         8.8863    7.5047  -12.8413 H         1 <0>         0.0605
     59 H23         6.5896    7.9278  -13.6197 H         1 <0>         0.0879
     60 H24         6.5788    9.5036  -12.7904 H         1 <0>         0.0447
@<TRIPOS>BOND
     1    1    2 1
     2    1   37 1
     3    1   38 1
     4    1   39 1
     5    2    3 1
     6    3    8 ar
     7    3    4 ar
     8    4    5 ar
     9    4   40 1
    10    5    6 ar
    11    5   11 1
    12    6    7 ar
    13    6   10 1
    14    7    8 ar
    15    7   41 1
    16    8    9 1
    17   11   12 1
    18   11   42 1
    19   12   21 ar
    20   12   13 ar
    21   13   18 ar
    22   13   14 ar
    23   14   15 ar
    24   14   43 1
    25   15   16 ar
    26   15   44 1
    27   16   17 ar
    28   16   24 1
    29   17   18 ar
    30   17   45 1
    31   18   19 ar
    32   19   20 ar
    33   20   21 ar
    34   20   46 1
    35   21   22 1
    36   22   23 3
    37   24   29 ar
    38   24   25 ar
    39   25   26 ar
    40   25   47 1
    41   26   27 ar
    42   26   48 1
    43   27   28 ar
    44   27   30 1
    45   28   29 ar
    46   28   49 1
    47   29   50 1
    48   30   31 1
    49   30   51 1
    50   30   52 1
    51   31   36 1
    52   31   32 1
    53   32   33 1
    54   32   53 1
    55   32   54 1
    56   33   34 1
    57   33   55 1
    58   33   56 1
    59   34   35 1
    60   35   36 1
    61   35   57 1
    62   35   58 1
    63   36   59 1
    64   36   60 1
@<TRIPOS>MOLECULE
CHEMBL1172521
   44    46     0     0     0
SMALL
USER_CHARGES

@<TRIPOS>ATOM
      1 C1         -0.8052    1.8143    1.1300 C.3       1 <0>        -0.1893
      2 C2         -0.6036    0.5373    0.3558 C.2       1 <0>         0.4098
      3 O1          0.4085    0.3758   -0.2969 O.2       1 <0>        -0.4594
      4 C3         -1.5889   -0.4697    0.3887 C.2       1 <0>        -0.0724
      5 C4         -2.7811   -0.4127    1.0812 C.2       1 <0>        -0.0786
      6 C5         -3.4592   -1.6225    0.8395 C.2       1 <0>        -0.2364
      7 C6         -2.6494   -2.3901   -0.0037 C.2       1 <0>         0.3660
      8 N1         -1.5302   -1.6871   -0.2743 N.pl3     1 <0>        -0.3993
      9 C7         -0.4285   -2.1381   -1.1282 C.3       1 <0>         0.0534
     10 N2         -2.9457   -3.6430   -0.4798 N.pl3     1 <0>        -0.6563
     11 C8         -2.1989   -4.7475   -0.0552 C.ar      1 <0>         0.1844
     12 C9         -1.0837   -4.5648    0.7516 C.ar      1 <0>        -0.1588
     13 C10        -0.3485   -5.6569    1.1697 C.ar      1 <0>        -0.0464
     14 C11        -0.7211   -6.9326    0.7855 C.ar      1 <0>        -0.1161
     15 C12        -1.8313   -7.1198   -0.0182 C.ar      1 <0>        -0.0737
     16 C13        -2.5752   -6.0313   -0.4357 C.ar      1 <0>         0.0564
     17 F1         -3.6625   -6.2142   -1.2163 F         1 <0>        -0.1286
     18 I1          0.3990   -8.5847    1.4218 I         1 <0>        -0.0170
     19 C14        -4.7723   -2.0071    1.3737 C.2       1 <0>         0.6335
     20 O2         -5.2524   -3.0881    1.0883 O.2       1 <0>        -0.5037
     21 N3         -5.4454   -1.1626    2.1801 N.am      1 <0>        -0.6425
     22 C15        -5.2180    0.1814    2.7324 C.3       1 <0>         0.0851
     23 C16        -6.1148   -0.2116    3.9144 C.3       1 <0>        -0.0230
     24 C17        -6.7334   -1.1768    2.8898 C.3       1 <0>         0.0994
     25 N4         -7.0240    0.8525    4.3605 N.4       1 <0>        -0.6258
     26 H1          0.0552    2.4674    0.9841 H         1 <0>         0.0934
     27 H2         -1.7060    2.3156    0.7759 H         1 <0>         0.0941
     28 H3         -0.9107    1.5837    2.1901 H         1 <0>         0.0941
     29 H4         -3.1287    0.4063    1.6935 H         1 <0>         0.1585
     30 H5          0.3474   -2.5913   -0.5112 H         1 <0>         0.0917
     31 H6         -0.7998   -2.8727   -1.8427 H         1 <0>         0.0914
     32 H7         -0.0133   -1.2857   -1.6660 H         1 <0>         0.1119
     33 H8         -3.6729   -3.7627   -1.1105 H         1 <0>         0.4304
     34 H9         -0.7912   -3.5695    1.0517 H         1 <0>         0.1329
     35 H10         0.5189   -5.5146    1.7972 H         1 <0>         0.1407
     36 H11        -2.1197   -8.1169   -0.3164 H         1 <0>         0.1493
     37 H12        -4.1815    0.3645    3.0159 H         1 <0>         0.1167
     38 H13        -5.6346    0.9794    2.1178 H         1 <0>         0.1101
     39 H14        -5.5868   -0.7014    4.7326 H         1 <0>         0.1818
     40 H15        -7.5496   -0.7368    2.3168 H         1 <0>         0.1068
     41 H16        -6.9881   -2.1508    3.3075 H         1 <0>         0.1137
     42 H17        -7.6339    1.1144    3.6005 H         1 <0>         0.4365
     43 H18        -7.5769    0.5193    5.1360 H         1 <0>         0.4437
     44 H19        -6.4857    1.6548    4.6514 H         1 <0>         0.4417
@<TRIPOS>BOND
     1    1    2 1
     2    1   26 1
     3    1   27 1
     4    1   28 1
     5    2    3 2
     6    2    4 1
     7    4    8 1
     8    4    5 2
     9    5    6 1
    10    5   29 1
    11    6    7 2
    12    6   19 1
    13    7    8 1
    14    7   10 1
    15    8    9 1
    16    9   30 1
    17    9   31 1
    18    9   32 1
    19   10   11 1
    20   10   33 1
    21   11   16 ar
    22   11   12 ar
    23   12   13 ar
    24   12   34 1
    25   13   14 ar
    26   13   35 1
    27   14   15 ar
    28   14   18 1
    29   15   16 ar
    30   15   36 1
    31   16   17 1
    32   19   20 2
    33   19   21 am
    34   21   24 1
    35   21   22 1
    36   22   23 1
    37   22   37 1
    38   22   38 1
    39   23   24 1
    40   23   25 1
    41   23   39 1
    42   24   40 1
    43   24   41 1
    44   25   42 1
    45   25   43 1
    46   25   44 1
@<TRIPOS>MOLECULE
CHEMBL1172521__1
   43    45     0     0     0
SMALL
USER_CHARGES

@<TRIPOS>ATOM
      1 C1         -0.8052    1.8143    1.1300 C.3       1 <0>        -0.1905
      2 C2         -0.6036    0.5373    0.3558 C.2       1 <0>         0.4164
      3 O1          0.4085    0.3758   -0.2969 O.2       1 <0>        -0.4726
      4 C3         -1.5889   -0.4697    0.3887 C.2       1 <0>        -0.0850
      5 C4         -2.7811   -0.4127    1.0812 C.2       1 <0>        -0.0702
      6 C5         -3.4592   -1.6225    0.8395 C.2       1 <0>        -0.2198
      7 C6         -2.6494   -2.3901   -0.0037 C.2       1 <0>         0.3504
      8 N1         -1.5302   -1.6871   -0.2743 N.pl3     1 <0>        -0.4037
      9 C7         -0.4285   -2.1381   -1.1282 C.3       1 <0>         0.0584
     10 N2         -2.9457   -3.6430   -0.4798 N.pl3     1 <0>        -0.6504
     11 C8         -2.1989   -4.7475   -0.0552 C.ar      1 <0>         0.1936
     12 C9         -1.0837   -4.5648    0.7516 C.ar      1 <0>        -0.1598
     13 C10        -0.3485   -5.6569    1.1697 C.ar      1 <0>        -0.0456
     14 C11        -0.7211   -6.9326    0.7855 C.ar      1 <0>        -0.1208
     15 C12        -1.8313   -7.1198   -0.0182 C.ar      1 <0>        -0.0741
     16 C13        -2.5752   -6.0313   -0.4357 C.ar      1 <0>         0.0523
     17 F1         -3.6625   -6.2142   -1.2163 F         1 <0>        -0.1293
     18 I1          0.3990   -8.5847    1.4218 I         1 <0>        -0.0263
     19 C14        -4.7723   -2.0071    1.3737 C.2       1 <0>         0.6205
     20 O2         -5.2524   -3.0881    1.0883 O.2       1 <0>        -0.5337
     21 N3         -5.4454   -1.1626    2.1801 N.am      1 <0>        -0.6426
     22 C15        -5.2180    0.1814    2.7324 C.3       1 <0>         0.1013
     23 C16        -6.1148   -0.2116    3.9144 C.3       1 <0>         0.0430
     24 C17        -6.7334   -1.1768    2.8898 C.3       1 <0>         0.1173
     25 N4         -7.0240    0.8525    4.3605 N.3       1 <0>        -0.8350
     26 H1          0.0552    2.4674    0.9841 H         1 <0>         0.0898
     27 H2         -1.7060    2.3156    0.7759 H         1 <0>         0.0960
     28 H3         -0.9107    1.5837    2.1901 H         1 <0>         0.0955
     29 H4         -3.1287    0.4063    1.6935 H         1 <0>         0.1633
     30 H5          0.3474   -2.5913   -0.5112 H         1 <0>         0.0867
     31 H6         -0.7998   -2.8727   -1.8427 H         1 <0>         0.0870
     32 H7         -0.0133   -1.2857   -1.6660 H         1 <0>         0.1083
     33 H8         -3.6729   -3.7627   -1.1105 H         1 <0>         0.4295
     34 H9         -0.7912   -3.5695    1.0517 H         1 <0>         0.1344
     35 H10         0.5189   -5.5146    1.7972 H         1 <0>         0.1387
     36 H11        -2.1197   -8.1169   -0.3164 H         1 <0>         0.1467
     37 H12        -4.1815    0.3645    3.0159 H         1 <0>         0.0808
     38 H13        -5.6346    0.9794    2.1178 H         1 <0>         0.0970
     39 H14        -5.5868   -0.7014    4.7326 H         1 <0>         0.0811
     40 H15        -7.5496   -0.7368    2.3168 H         1 <0>         0.0946
     41 H16        -6.9881   -2.1508    3.3075 H         1 <0>         0.0773
     42 H17        -7.5892    0.5433    5.1371 H         1 <0>         0.3506
     43 H18        -6.5126    1.6898    4.5963 H         1 <0>         0.3490
@<TRIPOS>BOND
     1    1    2 1
     2    1   26 1
     3    1   27 1
     4    1   28 1
     5    2    3 2
     6    2    4 1
     7    4    8 1
     8    4    5 2
     9    5    6 1
    10    5   29 1
    11    6    7 2
    12    6   19 1
    13    7    8 1
    14    7   10 1
    15    8    9 1
    16    9   30 1
    17    9   31 1
    18    9   32 1
    19   10   11 1
    20   10   33 1
    21   11   16 ar
    22   11   12 ar
    23   12   13 ar
    24   12   34 1
    25   13   14 ar
    26   13   35 1
    27   14   15 ar
    28   14   18 1
    29   15   16 ar
    30   15   36 1
    31   16   17 1
    32   19   20 2
    33   19   21 am
    34   21   24 1
    35   21   22 1
    36   22   23 1
    37   22   37 1
    38   22   38 1
    39   23   24 1
    40   23   25 1
    41   23   39 1
    42   24   40 1
    43   24   41 1
    44   25   42 1
    45   25   43 1
@<TRIPOS>MOLECULE
CHEMBL285905
   43    45     0     0     0
SMALL
USER_CHARGES

@<TRIPOS>ATOM
      1 C1         -0.1259    1.2560   -0.9237 C.ar      1 <0>        -0.1177
      2 C2          0.2933    0.8871    0.3412 C.ar      1 <0>        -0.1042
      3 C3          1.5080    0.2511    0.5095 C.ar      1 <0>        -0.1326
      4 C4          2.3077   -0.0174   -0.5923 C.ar      1 <0>         0.0824
      5 C5          1.8846    0.3539   -1.8606 C.ar      1 <0>        -0.1212
      6 C6          0.6691    0.9897   -2.0233 C.ar      1 <0>        -0.1049
      7 O1          3.5031   -0.6425   -0.4294 O.3       1 <0>        -0.2478
      8 C7          3.4963   -1.9810   -0.1927 C.ar      1 <0>         0.1420
      9 C8          2.3032   -2.6831   -0.2078 C.ar      1 <0>        -0.1955
     10 C9          2.2971   -4.0450    0.0337 C.ar      1 <0>        -0.0728
     11 C10         3.4805   -4.7140    0.2911 C.ar      1 <0>        -0.1513
     12 C11         4.6778   -4.0270    0.3093 C.ar      1 <0>        -0.0657
     13 C12         4.6960   -2.6552    0.0615 C.ar      1 <0>        -0.0584
     14 C13         5.9779   -1.9140    0.0737 C.2       1 <0>        -0.1009
     15 C14         6.8575   -2.0320   -0.9923 C.2       1 <0>         0.2119
     16 N1          6.5396   -2.8361   -2.0588 N.pl3     1 <0>        -0.8278
     17 S1          8.3828   -1.1500   -0.9778 S.3       1 <0>         0.0139
     18 C15         8.2073    0.0263   -2.2779 C.ar      1 <0>        -0.1899
     19 C16         6.9979    0.1495   -2.9462 C.ar      1 <0>        -0.0680
     20 C17         6.8626    1.0729   -3.9657 C.ar      1 <0>        -0.1617
     21 C18         7.9302    1.8762   -4.3229 C.ar      1 <0>        -0.0641
     22 C19         9.1393    1.7601   -3.6628 C.ar      1 <0>        -0.1852
     23 C20         9.2825    0.8406   -2.6344 C.ar      1 <0>         0.2475
     24 N2         10.5031    0.7261   -1.9605 N.pl3     1 <0>        -0.8704
     25 C21         6.3095   -1.0753    1.1860 C.1       1 <0>         0.2737
     26 N3          6.5725   -0.4099    2.0684 N.1       1 <0>        -0.4274
     27 H1         -1.0779    1.7491   -1.0536 H         1 <0>         0.1290
     28 H2         -0.3293    1.0966    1.1985 H         1 <0>         0.1307
     29 H3          1.8351   -0.0365    1.4978 H         1 <0>         0.1294
     30 H4          2.5052    0.1464   -2.7197 H         1 <0>         0.1310
     31 H5          0.3391    1.2786   -3.0102 H         1 <0>         0.1317
     32 H6          1.3760   -2.1668   -0.4080 H         1 <0>         0.1311
     33 H7          1.3641   -4.5887    0.0217 H         1 <0>         0.1281
     34 H8          3.4676   -5.7775    0.4787 H         1 <0>         0.1295
     35 H9          5.5996   -4.5524    0.5109 H         1 <0>         0.1350
     36 H10         5.6669   -3.2570   -2.1057 H         1 <0>         0.4053
     37 H11         7.1876   -2.9834   -2.7653 H         1 <0>         0.4095
     38 H12         6.1622   -0.4764   -2.6701 H         1 <0>         0.1254
     39 H13         5.9205    1.1672   -4.4852 H         1 <0>         0.1233
     40 H14         7.8190    2.5961   -5.1203 H         1 <0>         0.1264
     41 H15         9.9711    2.3886   -3.9449 H         1 <0>         0.1281
     42 H16        10.6029    0.0797   -1.2441 H         1 <0>         0.3992
     43 H17        11.2498    1.2930   -2.2096 H         1 <0>         0.4035
@<TRIPOS>BOND
     1    1    6 ar
     2    1    2 ar
     3    1   27 1
     4    2    3 ar
     5    2   28 1
     6    3    4 ar
     7    3   29 1
     8    4    5 ar
     9    4    7 1
    10    5    6 ar
    11    5   30 1
    12    6   31 1
    13    7    8 1
    14    8   13 ar
    15    8    9 ar
    16    9   10 ar
    17    9   32 1
    18   10   11 ar
    19   10   33 1
    20   11   12 ar
    21   11   34 1
    22   12   13 ar
    23   12   35 1
    24   13   14 1
    25   14   15 2
    26   14   25 1
    27   15   16 1
    28   15   17 1
    29   16   36 1
    30   16   37 1
    31   17   18 1
    32   18   23 ar
    33   18   19 ar
    34   19   20 ar
    35   19   38 1
    36   20   21 ar
    37   20   39 1
    38   21   22 ar
    39   21   40 1
    40   22   23 ar
    41   22   41 1
    42   23   24 1
    43   24   42 1
    44   24   43 1
    45   25   26 3
@<TRIPOS>MOLECULE
CHEMBL285905__1
   43    45     0     0     0
SMALL
USER_CHARGES

@<TRIPOS>ATOM
      1 C1         -0.2344    0.6487    0.4991 C.ar      1 <0>        -0.1189
      2 C2          0.3986    0.1751    1.6336 C.ar      1 <0>        -0.1048
      3 C3          1.6645   -0.3701    1.5430 C.ar      1 <0>        -0.1334
      4 C4          2.3010   -0.4423    0.3120 C.ar      1 <0>         0.0842
      5 C5          1.6636    0.0336   -0.8249 C.ar      1 <0>        -0.1216
      6 C6          0.3976    0.5779   -0.7287 C.ar      1 <0>        -0.1051
      7 O1          3.5465   -0.9777    0.2203 O.3       1 <0>        -0.2517
      8 C7          3.6662   -2.3301    0.2865 C.ar      1 <0>         0.1399
      9 C8          2.5348   -3.1250    0.3572 C.ar      1 <0>        -0.1954
     10 C9          2.6576   -4.5010    0.4251 C.ar      1 <0>        -0.0741
     11 C10         3.9087   -5.0917    0.4225 C.ar      1 <0>        -0.1495
     12 C11         5.0456   -4.3118    0.3526 C.ar      1 <0>        -0.0522
     13 C12         4.9333   -2.9242    0.2779 C.ar      1 <0>        -0.0435
     14 C13         6.1490   -2.0827    0.1965 C.2       1 <0>        -0.1034
     15 C14         6.8596   -2.0039   -0.9921 C.2       1 <0>         0.2083
     16 N1          7.9868   -1.2236   -1.0676 N.pl3     1 <0>        -0.8342
     17 S1          6.3157   -2.9051   -2.4051 S.3       1 <0>         0.0411
     18 C15         7.5762   -4.1111   -2.6527 C.ar      1 <0>        -0.1922
     19 C16         8.6104   -4.2348   -1.7364 C.ar      1 <0>        -0.0737
     20 C17         9.5981   -5.1815   -1.9327 C.ar      1 <0>        -0.1609
     21 C18         9.5594   -6.0077   -3.0410 C.ar      1 <0>        -0.0647
     22 C19         8.5329   -5.8913   -3.9597 C.ar      1 <0>        -0.1836
     23 C20         7.5341   -4.9484   -3.7678 C.ar      1 <0>         0.2481
     24 N2          6.4907   -4.8334   -4.6926 N.pl3     1 <0>        -0.8702
     25 C21         6.5911   -1.3502    1.3448 C.1       1 <0>         0.2660
     26 N3          6.9418   -0.7692    2.2558 N.1       1 <0>        -0.4333
     27 H1         -1.2260    1.0704    0.5714 H         1 <0>         0.1285
     28 H2         -0.0972    0.2319    2.5914 H         1 <0>         0.1300
     29 H3          2.1586   -0.7395    2.4294 H         1 <0>         0.1287
     30 H4          2.1569   -0.0211   -1.7841 H         1 <0>         0.1322
     31 H5         -0.0991    0.9482   -1.6134 H         1 <0>         0.1314
     32 H6          1.5553   -2.6702    0.3596 H         1 <0>         0.1292
     33 H7          1.7725   -5.1174    0.4808 H         1 <0>         0.1262
     34 H8          3.9963   -6.1668    0.4758 H         1 <0>         0.1273
     35 H9          6.0207   -4.7761    0.3511 H         1 <0>         0.1297
     36 H10         8.3310   -0.7903   -0.2710 H         1 <0>         0.4024
     37 H11         8.4389   -1.1057   -1.9177 H         1 <0>         0.4104
     38 H12         8.6440   -3.5910   -0.8698 H         1 <0>         0.1226
     39 H13        10.4027   -5.2762   -1.2185 H         1 <0>         0.1234
     40 H14        10.3338   -6.7457   -3.1896 H         1 <0>         0.1262
     41 H15         8.5063   -6.5377   -4.8245 H         1 <0>         0.1279
     42 H16         5.7950   -4.1707   -4.5590 H         1 <0>         0.3993
     43 H17         6.4629   -5.4163   -5.4674 H         1 <0>         0.4034
@<TRIPOS>BOND
     1    1    6 ar
     2    1    2 ar
     3    1   27 1
     4    2    3 ar
     5    2   28 1
     6    3    4 ar
     7    3   29 1
     8    4    5 ar
     9    4    7 1
    10    5    6 ar
    11    5   30 1
    12    6   31 1
    13    7    8 1
    14    8   13 ar
    15    8    9 ar
    16    9   10 ar
    17    9   32 1
    18   10   11 ar
    19   10   33 1
    20   11   12 ar
    21   11   34 1
    22   12   13 ar
    23   12   35 1
    24   13   14 1
    25   14   15 2
    26   14   25 1
    27   15   16 1
    28   15   17 1
    29   16   36 1
    30   16   37 1
    31   17   18 1
    32   18   23 ar
    33   18   19 ar
    34   19   20 ar
    35   19   38 1
    36   20   21 ar
    37   20   39 1
    38   21   22 ar
    39   21   40 1
    40   22   23 ar
    41   22   41 1
    42   23   24 1
    43   24   42 1
    44   24   43 1
    45   25   26 3
@<TRIPOS>MOLECULE
CHEMBL523559
   63    67     0     0     0
SMALL
USER_CHARGES

@<TRIPOS>ATOM
      1 C1         -0.1092    1.5049   -0.0254 C.3       1 <0>        -0.1380
      2 C2         -0.0684   -0.0016   -0.0277 C.ar      1 <0>        -0.0358
      3 C3         -0.0673   -0.6889   -1.2260 C.ar      1 <0>        -0.1247
      4 C4         -0.0301   -2.0686   -1.2370 C.ar      1 <0>        -0.0760
      5 C5          0.0067   -2.7781   -0.0343 C.ar      1 <0>        -0.1410
      6 C6          0.0063   -2.0894    1.1772 C.ar      1 <0>        -0.0348
      7 C7         -0.0260   -0.6981    1.1799 C.ar      1 <0>        -0.0601
      8 C8         -0.0215    0.0424    2.4648 C.ar      1 <0>        -0.0214
      9 C9          1.0945   -0.0171    3.2998 C.ar      1 <0>        -0.0995
     10 C10         1.0999    0.6703    4.4924 C.ar      1 <0>        -0.0854
     11 C11        -0.0128    1.4277    4.8666 C.ar      1 <0>        -0.0190
     12 C12        -1.1295    1.4866    4.0300 C.ar      1 <0>        -0.0654
     13 C13        -1.1307    0.8025    2.8349 C.ar      1 <0>        -0.0683
     14 C14        -2.3331    0.8709    1.9290 C.3       1 <0>        -0.1308
     15 C15        -0.0083    2.1654    6.1466 C.2       1 <0>         0.2068
     16 N1         -0.9822    2.9065    6.6217 N.2       1 <0>        -0.2724
     17 N2         -0.6284    3.3937    7.7588 N.2       1 <0>        -0.2847
     18 C16         0.5751    2.9865    8.0520 C.2       1 <0>         0.1666
     19 O1          0.9945    2.1983    7.0472 O.3       1 <0>        -0.2207
     20 C17         1.3532    3.3327    9.2953 C.3       1 <0>        -0.0603
     21 C18         0.0456   -4.2559   -0.0466 C.2       1 <0>         0.5617
     22 O2          0.0776   -4.8718    1.0009 O.2       1 <0>        -0.5101
     23 N3          0.0455   -4.9202   -1.2193 N.am      1 <0>        -0.6700
     24 C19         0.1769   -6.3124   -1.2342 C.ar      1 <0>         0.1909
     25 C20        -0.3971   -7.0761   -0.2250 C.ar      1 <0>        -0.1743
     26 C21        -0.2682   -8.4514   -0.2391 C.ar      1 <0>        -0.0525
     27 C22         0.4318   -9.0723   -1.2558 C.ar      1 <0>        -0.2100
     28 C23         1.0082   -8.3146   -2.2679 C.ar      1 <0>         0.2368
     29 C24         0.8756   -6.9330   -2.2596 C.ar      1 <0>        -0.2247
     30 N4          1.7161   -8.9430   -3.2950 N.pl3     1 <0>        -0.6326
     31 C25         2.4397   -8.1571   -4.3071 C.3       1 <0>         0.0870
     32 C26         3.8709   -8.6972   -4.4061 C.3       1 <0>         0.0454
     33 O3          3.8272  -10.1113   -4.6122 O.3       1 <0>        -0.3789
     34 C27         3.2251  -10.8406   -3.5401 C.3       1 <0>         0.0449
     35 C28         1.7655  -10.4103   -3.3934 C.3       1 <0>         0.0862
     36 H1          0.9081    1.8959   -0.0448 H         1 <0>         0.0781
     37 H2         -0.6499    1.8551   -0.9046 H         1 <0>         0.0745
     38 H3         -0.6152    1.8533    0.8750 H         1 <0>         0.0842
     39 H4         -0.0961   -0.1444   -2.1582 H         1 <0>         0.1350
     40 H5         -0.0298   -2.6005   -2.1769 H         1 <0>         0.1276
     41 H6          0.0343   -2.6330    2.1100 H         1 <0>         0.1406
     42 H7          1.9544   -0.6030    3.0105 H         1 <0>         0.1362
     43 H8          1.9638    0.6238    5.1388 H         1 <0>         0.1350
     44 H9         -1.9902    2.0718    4.3183 H         1 <0>         0.1437
     45 H10        -3.0260    0.0690    2.1838 H         1 <0>         0.0769
     46 H11        -2.8290    1.8333    2.0555 H         1 <0>         0.0744
     47 H12        -2.0141    0.7599    0.8927 H         1 <0>         0.0819
     48 H13         1.1472    2.5943   10.0702 H         1 <0>         0.1017
     49 H14         2.4193    3.3335    9.0683 H         1 <0>         0.0948
     50 H15         1.0558    4.3208    9.6467 H         1 <0>         0.1094
     51 H16        -0.0457   -4.4327   -2.0529 H         1 <0>         0.4092
     52 H17        -0.9443   -6.5938    0.5715 H         1 <0>         0.1360
     53 H18        -0.7153   -9.0425    0.5464 H         1 <0>         0.1264
     54 H19         0.5314  -10.1477   -1.2636 H         1 <0>         0.1234
     55 H20         1.3192   -6.3420   -3.0473 H         1 <0>         0.1246
     56 H21         1.9427   -8.2551   -5.2722 H         1 <0>         0.0713
     57 H22         2.4627   -7.1086   -4.0102 H         1 <0>         0.0909
     58 H23         4.3819   -8.2229   -5.2440 H         1 <0>         0.1053
     59 H24         4.4067   -8.4804   -3.4820 H         1 <0>         0.0559
     60 H25         3.2715  -11.9082   -3.7549 H         1 <0>         0.1062
     61 H26         3.7585  -10.6315   -2.6128 H         1 <0>         0.0559
     62 H27         1.3422  -10.8532   -2.4918 H         1 <0>         0.0945
     63 H28         1.1994  -10.7391   -4.2650 H         1 <0>         0.0715
@<TRIPOS>BOND
     1    1    2 1
     2    1   36 1
     3    1   37 1
     4    1   38 1
     5    2    7 ar
     6    2    3 ar
     7    3    4 ar
     8    3   39 1
     9    4    5 ar
    10    4   40 1
    11    5    6 ar
    12    5   21 1
    13    6    7 ar
    14    6   41 1
    15    7    8 1
    16    8   13 ar
    17    8    9 ar
    18    9   10 ar
    19    9   42 1
    20   10   11 ar
    21   10   43 1
    22   11   12 ar
    23   11   15 1
    24   12   13 ar
    25   12   44 1
    26   13   14 1
    27   14   45 1
    28   14   46 1
    29   14   47 1
    30   15   19 1
    31   15   16 2
    32   16   17 1
    33   17   18 2
    34   18   19 1
    35   18   20 1
    36   20   48 1
    37   20   49 1
    38   20   50 1
    39   21   22 2
    40   21   23 am
    41   23   24 1
    42   23   51 1
    43   24   29 ar
    44   24   25 ar
    45   25   26 ar
    46   25   52 1
    47   26   27 ar
    48   26   53 1
    49   27   28 ar
    50   27   54 1
    51   28   29 ar
    52   28   30 1
    53   29   55 1
    54   30   35 1
    55   30   31 1
    56   31   32 1
    57   31   56 1
    58   31   57 1
    59   32   33 1
    60   32   58 1
    61   32   59 1
    62   33   34 1
    63   34   35 1
    64   34   60 1
    65   34   61 1
    66   35   62 1
    67   35   63 1
@<TRIPOS>MOLECULE
CHEMBL495729
   61    65     0     0     0
SMALL
USER_CHARGES

@<TRIPOS>ATOM
      1 C1         -0.0001    1.5029    0.0212 C.3       1 <0>        -0.1303
      2 C2          0.0160   -0.0040    0.0099 C.ar      1 <0>        -0.0791
      3 C3         -0.1597   -0.6872   -1.1770 C.ar      1 <0>        -0.0980
      4 C4         -0.1458   -2.0689   -1.1924 C.ar      1 <0>        -0.1334
      5 C5          0.0447   -2.7790   -0.0128 C.ar      1 <0>         0.1414
      6 C6          0.2219   -2.1006    1.1834 C.ar      1 <0>        -0.0983
      7 C7          0.2138   -0.7077    1.1970 C.ar      1 <0>        -0.0348
      8 C8          0.4092    0.0245    2.4717 C.ar      1 <0>        -0.0153
      9 C9          1.6292   -0.0583    3.1433 C.ar      1 <0>        -0.1018
     10 C10         1.8115    0.6206    4.3268 C.ar      1 <0>        -0.0862
     11 C11         0.7744    1.3932    4.8551 C.ar      1 <0>        -0.0224
     12 C12        -0.4464    1.4759    4.1818 C.ar      1 <0>        -0.0653
     13 C13        -0.6249    0.8002    2.9954 C.ar      1 <0>        -0.0672
     14 C14        -1.9399    0.8941    2.2654 C.3       1 <0>        -0.1307
     15 C15         0.9687    2.1220    6.1256 C.2       1 <0>         0.2092
     16 N1          0.0827    2.8754    6.7346 N.2       1 <0>        -0.2737
     17 N2          0.5991    3.3493    7.8135 N.2       1 <0>        -0.2846
     18 C16         1.8246    2.9210    7.9350 C.2       1 <0>         0.1645
     19 O1          2.0870    2.1325    6.8785 O.3       1 <0>        -0.2212
     20 C17         2.7734    3.2462    9.0598 C.3       1 <0>        -0.0597
     21 N3          0.0572   -4.1773   -0.0324 N.am      1 <0>        -0.6653
     22 C18        -0.4222   -4.8704    1.0195 C.2       1 <0>         0.5610
     23 O2         -0.9525   -4.2842    1.9425 O.2       1 <0>        -0.5050
     24 C19        -0.3026   -6.3465    1.0504 C.ar      1 <0>        -0.0473
     25 C20         0.3102   -7.0401   -0.0004 C.ar      1 <0>        -0.2116
     26 C21         0.4029   -8.4149    0.0651 C.ar      1 <0>         0.1544
     27 N4         -0.0758   -9.0797    1.0991 N.ar      1 <0>        -0.5271
     28 C22        -0.6627   -8.4671    2.1146 C.ar      1 <0>         0.4239
     29 C23        -0.7924   -7.0821    2.1299 C.ar      1 <0>        -0.1757
     30 N5         -1.1501   -9.2153    3.1802 N.pl3     1 <0>        -0.6138
     31 C24        -0.9832  -10.6653    3.3564 C.3       1 <0>         0.1198
     32 C25        -1.7093  -11.0549    4.6612 C.3       1 <0>        -0.1347
     33 C26        -2.7248   -9.8976    4.8527 C.3       1 <0>        -0.1332
     34 C27        -1.9145   -8.6850    4.3238 C.3       1 <0>         0.1114
     35 H1          1.0108    1.8782   -0.1381 H         1 <0>         0.0718
     36 H2         -0.6517    1.8653   -0.7739 H         1 <0>         0.0700
     37 H3         -0.3709    1.8551    0.9837 H         1 <0>         0.0799
     38 H4         -0.3088   -0.1401   -2.0961 H         1 <0>         0.1316
     39 H5         -0.2837   -2.5984   -2.1235 H         1 <0>         0.1288
     40 H6          0.3701   -2.6504    2.1011 H         1 <0>         0.1372
     41 H7          2.4308   -0.6557    2.7347 H         1 <0>         0.1344
     42 H8          2.7558    0.5558    4.8469 H         1 <0>         0.1337
     43 H9         -1.2488    2.0729    4.5895 H         1 <0>         0.1429
     44 H10        -2.6044    0.1019    2.6104 H         1 <0>         0.0762
     45 H11        -2.3970    1.8636    2.4636 H         1 <0>         0.0728
     46 H12        -1.7696    0.7848    1.1944 H         1 <0>         0.0841
     47 H13         2.6646    2.5059    9.8524 H         1 <0>         0.1011
     48 H14         3.7975    3.2316    8.6870 H         1 <0>         0.0944
     49 H15         2.5442    4.2364    9.4536 H         1 <0>         0.1091
     50 H16         0.4110   -4.6484   -0.8030 H         1 <0>         0.4133
     51 H17         0.7050   -6.5055   -0.8517 H         1 <0>         0.1352
     52 H18         0.8742   -8.9552   -0.7426 H         1 <0>         0.1641
     53 H19        -1.2679   -6.5847    2.9624 H         1 <0>         0.1435
     54 H20        -1.4267  -11.1947    2.5131 H         1 <0>         0.0674
     55 H21         0.0762  -10.9097    3.4345 H         1 <0>         0.0651
     56 H22        -2.2271  -12.0070    4.5450 H         1 <0>         0.0844
     57 H23        -1.0086  -11.0951    5.4952 H         1 <0>         0.0773
     58 H24        -3.6220  -10.0623    4.2561 H         1 <0>         0.0782
     59 H25        -2.9759   -9.7682    5.9055 H         1 <0>         0.0875
     60 H26        -1.2376   -8.3135    5.0931 H         1 <0>         0.0697
     61 H27        -2.5881   -7.8933    3.9956 H         1 <0>         0.0762
@<TRIPOS>BOND
     1    1    2 1
     2    1   35 1
     3    1   36 1
     4    1   37 1
     5    2    7 ar
     6    2    3 ar
     7    3    4 ar
     8    3   38 1
     9    4    5 ar
    10    4   39 1
    11    5    6 ar
    12    5   21 1
    13    6    7 ar
    14    6   40 1
    15    7    8 1
    16    8   13 ar
    17    8    9 ar
    18    9   10 ar
    19    9   41 1
    20   10   11 ar
    21   10   42 1
    22   11   12 ar
    23   11   15 1
    24   12   13 ar
    25   12   43 1
    26   13   14 1
    27   14   44 1
    28   14   45 1
    29   14   46 1
    30   15   19 1
    31   15   16 2
    32   16   17 1
    33   17   18 2
    34   18   19 1
    35   18   20 1
    36   20   47 1
    37   20   48 1
    38   20   49 1
    39   21   22 am
    40   21   50 1
    41   22   23 2
    42   22   24 1
    43   24   29 ar
    44   24   25 ar
    45   25   26 ar
    46   25   51 1
    47   26   27 ar
    48   26   52 1
    49   27   28 ar
    50   28   29 ar
    51   28   30 1
    52   29   53 1
    53   30   34 1
    54   30   31 1
    55   31   32 1
    56   31   54 1
    57   31   55 1
    58   32   33 1
    59   32   56 1
    60   32   57 1
    61   33   34 1
    62   33   58 1
    63   33   59 1
    64   34   60 1
    65   34   61 1
@<TRIPOS>MOLECULE
CHEMBL320688
   71    75     0     0     0
SMALL
USER_CHARGES

@<TRIPOS>ATOM
      1 C1          4.3637   -5.9036    1.3522 C.3       1 <0>         0.0514
      2 N1          5.4785   -5.2083    0.7042 N.pl3     1 <0>        -0.4040
      3 C2          6.7222   -5.7230    0.4553 C.2       1 <0>         0.0261
      4 C3          7.4312   -4.7523   -0.1518 C.2       1 <0>         0.0033
      5 N2          6.6420   -3.6743   -0.2704 N.pl3     1 <0>        -0.4751
      6 C4          5.4692   -3.9418    0.2357 C.cat     1 <0>         0.3164
      7 C5          4.2995   -2.9932    0.2913 C.3       1 <0>        -0.0254
      8 C6          4.4837   -2.0354    1.4400 C.ar      1 <0>        -0.1620
      9 C7          3.9421   -2.3301    2.6779 C.ar      1 <0>        -0.0420
     10 C8          4.1089   -1.4548    3.7327 C.ar      1 <0>        -0.1682
     11 C9          4.8223   -0.2764    3.5501 C.ar      1 <0>         0.2427
     12 C10         5.3657    0.0174    2.3062 C.ar      1 <0>        -0.1673
     13 C11         5.1993   -0.8653    1.2555 C.ar      1 <0>         0.0201
     14 Cl1         5.8835   -0.5029   -0.2984 Cl        1 <0>        -0.0598
     15 N3          4.9922    0.6114    4.6156 N.pl3     1 <0>        -0.6897
     16 C12         5.6128    1.8273    4.4089 C.ar      1 <0>         0.2407
     17 C13         7.0150    1.9620    4.5330 C.ar      1 <0>        -0.0959
     18 C14         7.8198    0.8634    4.8702 C.ar      1 <0>        -0.1685
     19 C15         9.1709    1.0208    4.9830 C.ar      1 <0>         0.1336
     20 C16         9.7644    2.2723    4.7649 C.ar      1 <0>         0.1608
     21 C17         8.9975    3.3657    4.4335 C.ar      1 <0>        -0.1746
     22 C18         7.6060    3.2291    4.3109 C.ar      1 <0>         0.1694
     23 N4          6.8425    4.2831    3.9873 N.ar      1 <0>        -0.4537
     24 C19         5.5431    4.1870    3.8652 C.ar      1 <0>         0.1791
     25 C20         4.8736    2.9686    4.0631 C.ar      1 <0>        -0.0779
     26 C21         3.4511    2.8927    3.9176 C.1       1 <0>         0.2477
     27 N5          2.3226    2.8325    3.8022 N.1       1 <0>        -0.3850
     28 O1         11.1111    2.4069    4.8826 O.3       1 <0>        -0.2912
     29 C22        11.6561    3.7070    4.6481 C.3       1 <0>         0.0541
     30 C23        13.1752    3.6628    4.8252 C.3       1 <0>        -0.1158
     31 C24        13.7586    5.0547    4.5742 C.3       1 <0>         0.0581
     32 N6         15.2171    5.0122    4.7442 N.3       1 <0>        -0.5364
     33 C25        15.5767    4.7365    6.1428 C.3       1 <0>         0.0125
     34 C26        17.1000    4.6418    6.2632 C.3       1 <0>         0.0622
     35 O2         17.6875    5.8537    5.7820 O.3       1 <0>        -0.3839
     36 C27        17.3586    6.1528    4.4227 C.3       1 <0>         0.0624
     37 C28        15.8379    6.2627    4.2836 C.3       1 <0>         0.0172
     38 O3          9.9484   -0.0456    5.3104 O.3       1 <0>        -0.2948
     39 C29         9.2836   -1.2931    5.5202 C.3       1 <0>         0.0245
     40 H1          3.7054   -6.3228    0.5913 H         1 <0>         0.1132
     41 H2          4.7515   -6.7064    1.9794 H         1 <0>         0.1224
     42 H3          3.8048   -5.1991    1.9681 H         1 <0>         0.1104
     43 H4          7.0685   -6.7164    0.6993 H         1 <0>         0.2262
     44 H5          8.4558   -4.8285   -0.4849 H         1 <0>         0.2253
     45 H6          4.2406   -2.4338   -0.6424 H         1 <0>         0.1309
     46 H7          3.3791   -3.5594    0.4343 H         1 <0>         0.1322
     47 H8          3.3877   -3.2460    2.8196 H         1 <0>         0.1398
     48 H9          3.6849   -1.6857    4.6988 H         1 <0>         0.1426
     49 H10         5.9204    0.9326    2.1610 H         1 <0>         0.1419
     50 H11         4.6741    0.3734    5.5006 H         1 <0>         0.4249
     51 H12         7.3714   -0.1042    5.0403 H         1 <0>         0.1449
     52 H13         9.4645    4.3254    4.2683 H         1 <0>         0.1595
     53 H14         4.9722    5.0653    3.6027 H         1 <0>         0.1775
     54 H15        11.4177    4.0232    3.6326 H         1 <0>         0.0721
     55 H16        11.2279    4.4140    5.3587 H         1 <0>         0.0707
     56 H17        13.4135    3.3466    5.8407 H         1 <0>         0.0775
     57 H18        13.6033    2.9558    4.1146 H         1 <0>         0.0862
     58 H19        13.5203    5.3709    3.5587 H         1 <0>         0.0815
     59 H20        13.3304    5.7617    5.2848 H         1 <0>         0.0411
     60 H21        15.2108    5.5428    6.7784 H         1 <0>         0.0454
     61 H22        15.1276    3.7936    6.4549 H         1 <0>         0.0894
     62 H23        17.3740    4.4943    7.3078 H         1 <0>         0.0999
     63 H24        17.4606    3.8018    5.6696 H         1 <0>         0.0608
     64 H25        17.8196    7.0980    4.1361 H         1 <0>         0.1009
     65 H26        17.7266    5.3566    3.7755 H         1 <0>         0.0611
     66 H27        15.5794    6.4340    3.2386 H         1 <0>         0.0883
     67 H28        15.4761    7.0934    4.8895 H         1 <0>         0.0457
     68 H29        10.0177   -2.0577    5.7744 H         1 <0>         0.1081
     69 H30         8.5682   -1.1908    6.3362 H         1 <0>         0.0594
     70 H31         8.7580   -1.5822    4.6102 H         1 <0>         0.0527
     71 H32         6.9009   -2.8303   -0.6723 H         1 <0>         0.4566
@<TRIPOS>BOND
     1    1    2 1
     2    1   40 1
     3    1   41 1
     4    1   42 1
     5    2    6 1
     6    2    3 1
     7    3    4 2
     8    3   43 1
     9    4    5 1
    10    4   44 1
    11    5    6 2
    12    5   71 1
    13    6    7 1
    14    7    8 1
    15    7   45 1
    16    7   46 1
    17    8   13 ar
    18    8    9 ar
    19    9   10 ar
    20    9   47 1
    21   10   11 ar
    22   10   48 1
    23   11   12 ar
    24   11   15 1
    25   12   13 ar
    26   12   49 1
    27   13   14 1
    28   15   16 1
    29   15   50 1
    30   16   25 ar
    31   16   17 ar
    32   17   22 ar
    33   17   18 ar
    34   18   19 ar
    35   18   51 1
    36   19   20 ar
    37   19   38 1
    38   20   21 ar
    39   20   28 1
    40   21   22 ar
    41   21   52 1
    42   22   23 ar
    43   23   24 ar
    44   24   25 ar
    45   24   53 1
    46   25   26 1
    47   26   27 3
    48   28   29 1
    49   29   30 1
    50   29   54 1
    51   29   55 1
    52   30   31 1
    53   30   56 1
    54   30   57 1
    55   31   32 1
    56   31   58 1
    57   31   59 1
    58   32   37 1
    59   32   33 1
    60   33   34 1
    61   33   60 1
    62   33   61 1
    63   34   35 1
    64   34   62 1
    65   34   63 1
    66   35   36 1
    67   36   37 1
    68   36   64 1
    69   36   65 1
    70   37   66 1
    71   37   67 1
    72   38   39 1
    73   39   68 1
    74   39   69 1
    75   39   70 1
@<TRIPOS>MOLECULE
CHEMBL320688__1
   71    75     0     0     0
SMALL
USER_CHARGES

@<TRIPOS>ATOM
      1 C1         -4.2225    3.9840   -1.3581 C.3       1 <0>         0.0666
      2 N1         -5.2143    3.0351   -1.8700 N.pl3     1 <0>        -0.4571
      3 C2         -6.3653    3.3467   -2.5421 C.2       1 <0>        -0.0578
      4 C3         -6.9777    2.1817   -2.8272 C.2       1 <0>        -0.0283
      5 N2         -6.2213    1.1858   -2.3423 N.2       1 <0>        -0.4730
      6 C4         -5.1609    1.6892   -1.7721 C.2       1 <0>         0.2103
      7 C5         -4.0609    0.8997   -1.1106 C.3       1 <0>         0.0051
      8 C6         -4.3926    0.6987    0.3456 C.ar      1 <0>        -0.1159
      9 C7         -3.8931    1.5725    1.2940 C.ar      1 <0>        -0.0592
     10 C8         -4.1950    1.3914    2.6292 C.ar      1 <0>        -0.1710
     11 C9         -5.0021    0.3301    3.0203 C.ar      1 <0>         0.2129
     12 C10        -5.5029   -0.5460    2.0660 C.ar      1 <0>        -0.1741
     13 C11        -5.2010   -0.3565    0.7304 C.ar      1 <0>         0.0256
     14 Cl1        -5.8315   -1.4466   -0.4645 Cl        1 <0>        -0.0390
     15 N3         -5.3088    0.1442    4.3707 N.pl3     1 <0>        -0.7043
     16 C12        -6.0086   -0.9764    4.7719 C.ar      1 <0>         0.2637
     17 C13        -7.4215   -0.9733    4.8297 C.ar      1 <0>        -0.0949
     18 C14        -8.1568    0.1695    4.4808 C.ar      1 <0>        -0.1501
     19 C15        -9.5199    0.1455    4.5451 C.ar      1 <0>         0.1251
     20 C16       -10.1948   -1.0124    4.9573 C.ar      1 <0>         0.1498
     21 C17        -9.4971   -2.1463    5.3052 C.ar      1 <0>        -0.1694
     22 C18        -8.0948   -2.1466    5.2468 C.ar      1 <0>         0.1623
     23 N4         -7.3979   -3.2428    5.5807 N.ar      1 <0>        -0.4635
     24 C19        -6.0905   -3.2738    5.5359 C.ar      1 <0>         0.1840
     25 C20        -5.3414   -2.1576    5.1301 C.ar      1 <0>        -0.0778
     26 C21        -3.9115   -2.2228    5.0862 C.1       1 <0>         0.2470
     27 N5         -2.7773   -2.2745    5.0514 N.1       1 <0>        -0.3814
     28 O1        -11.5522   -1.0146    5.0142 O.3       1 <0>        -0.2938
     29 C22       -12.1815   -2.2243    5.4416 C.3       1 <0>         0.0563
     30 C23       -13.7000   -2.0366    5.4421 C.3       1 <0>        -0.1506
     31 C24       -14.3738   -3.3317    5.8998 C.3       1 <0>        -0.0060
     32 N6        -15.8317   -3.1514    5.9003 N.4       1 <0>        -0.3844
     33 C25       -16.2008   -2.1459    6.9062 C.3       1 <0>        -0.0501
     34 C26       -17.7201   -1.9598    6.9046 C.3       1 <0>         0.0362
     35 O2        -18.3496   -3.2177    7.1637 O.3       1 <0>        -0.3563
     36 C27       -18.0020   -4.2378    6.2233 C.3       1 <0>         0.0355
     37 C28       -16.4832   -4.4282    6.2237 C.3       1 <0>        -0.0433
     38 O3        -10.2300    1.2548    4.2068 O.3       1 <0>        -0.3014
     39 C29        -9.4840    2.4021    3.7956 C.3       1 <0>         0.0220
     40 H1         -3.4719    4.1742   -2.1253 H         1 <0>         0.0797
     41 H2         -4.7167    4.9188   -1.0935 H         1 <0>         0.0873
     42 H3         -3.7408    3.5649   -0.4746 H         1 <0>         0.0850
     43 H4         -6.7152    4.3367   -2.7950 H         1 <0>         0.1733
     44 H5         -7.9138    2.0691   -3.3538 H         1 <0>         0.1684
     45 H6         -3.9657   -0.0702   -1.5988 H         1 <0>         0.1093
     46 H7         -3.1204    1.4439   -1.1973 H         1 <0>         0.0904
     47 H8         -3.2659    2.3974    0.9900 H         1 <0>         0.1334
     48 H9         -3.8038    2.0741    3.3691 H         1 <0>         0.1328
     49 H10        -6.1302   -1.3721    2.3667 H         1 <0>         0.1294
     50 H11        -5.0301    0.8025    5.0264 H         1 <0>         0.4210
     51 H12        -7.6455    1.0660    4.1625 H         1 <0>         0.1503
     52 H13       -10.0266   -3.0326    5.6220 H         1 <0>         0.1540
     53 H14        -5.5751   -4.1810    5.8148 H         1 <0>         0.1773
     54 H15       -11.9156   -3.0326    4.7604 H         1 <0>         0.0794
     55 H16       -11.8458   -2.4724    6.4485 H         1 <0>         0.0787
     56 H17       -13.9659   -1.2282    6.1233 H         1 <0>         0.1004
     57 H18       -14.0357   -1.7885    4.4352 H         1 <0>         0.1016
     58 H19       -14.1079   -4.1400    5.2186 H         1 <0>         0.1386
     59 H20       -14.0380   -3.5798    6.9067 H         1 <0>         0.1361
     60 H21       -15.8766   -2.4811    7.8914 H         1 <0>         0.1407
     61 H22       -15.7181   -1.1983    6.6672 H         1 <0>         0.1446
     62 H23       -18.0002   -1.2461    7.6794 H         1 <0>         0.1425
     63 H24       -18.0400   -1.5862    5.9318 H         1 <0>         0.0820
     64 H25       -18.4861   -5.1729    6.5050 H         1 <0>         0.1430
     65 H26       -18.3316   -3.9423    5.2272 H         1 <0>         0.0819
     66 H27       -16.2101   -5.1749    5.4779 H         1 <0>         0.1443
     67 H28       -16.1588   -4.7626    7.2091 H         1 <0>         0.1403
     68 H29        -8.8216    2.7135    4.6034 H         1 <0>         0.0600
     69 H30        -8.8914    2.1539    2.9151 H         1 <0>         0.0611
     70 H31       -10.1699    3.2143    3.5548 H         1 <0>         0.1086
     71 H32       -16.1327   -2.8416    4.9884 H         1 <0>         0.4249
@<TRIPOS>BOND
     1    1    2 1
     2    1   40 1
     3    1   41 1
     4    1   42 1
     5    2    6 1
     6    2    3 1
     7    3    4 2
     8    3   43 1
     9    4    5 1
    10    4   44 1
    11    5    6 2
    12    6    7 1
    13    7    8 1
    14    7   45 1
    15    7   46 1
    16    8   13 ar
    17    8    9 ar
    18    9   10 ar
    19    9   47 1
    20   10   11 ar
    21   10   48 1
    22   11   12 ar
    23   11   15 1
    24   12   13 ar
    25   12   49 1
    26   13   14 1
    27   15   16 1
    28   15   50 1
    29   16   25 ar
    30   16   17 ar
    31   17   22 ar
    32   17   18 ar
    33   18   19 ar
    34   18   51 1
    35   19   20 ar
    36   19   38 1
    37   20   21 ar
    38   20   28 1
    39   21   22 ar
    40   21   52 1
    41   22   23 ar
    42   23   24 ar
    43   24   25 ar
    44   24   53 1
    45   25   26 1
    46   26   27 3
    47   28   29 1
    48   29   30 1
    49   29   54 1
    50   29   55 1
    51   30   31 1
    52   30   56 1
    53   30   57 1
    54   31   32 1
    55   31   58 1
    56   31   59 1
    57   32   37 1
    58   32   33 1
    59   32   71 1
    60   33   34 1
    61   33   60 1
    62   33   61 1
    63   34   35 1
    64   34   62 1
    65   34   63 1
    66   35   36 1
    67   36   37 1
    68   36   64 1
    69   36   65 1
    70   37   66 1
    71   37   67 1
    72   38   39 1
    73   39   68 1
    74   39   69 1
    75   39   70 1
@<TRIPOS>MOLECULE
CHEMBL320688__2
   72    76     0     0     0
SMALL
USER_CHARGES

@<TRIPOS>ATOM
      1 C1          4.3637   -5.9036    1.3522 C.3       1 <0>         0.0503
      2 N1          5.4785   -5.2083    0.7042 N.pl3     1 <0>        -0.4027
      3 C2          6.7222   -5.7230    0.4553 C.2       1 <0>         0.0281
      4 C3          7.4312   -4.7523   -0.1518 C.2       1 <0>         0.0017
      5 N2          6.6420   -3.6743   -0.2704 N.pl3     1 <0>        -0.4757
      6 C4          5.4692   -3.9418    0.2357 C.cat     1 <0>         0.3157
      7 C5          4.2995   -2.9932    0.2913 C.3       1 <0>        -0.0272
      8 C6          4.4837   -2.0354    1.4400 C.ar      1 <0>        -0.1573
      9 C7          3.9421   -2.3301    2.6779 C.ar      1 <0>        -0.0413
     10 C8          4.1089   -1.4548    3.7327 C.ar      1 <0>        -0.1652
     11 C9          4.8223   -0.2764    3.5501 C.ar      1 <0>         0.2390
     12 C10         5.3657    0.0174    2.3062 C.ar      1 <0>        -0.1685
     13 C11         5.1993   -0.8653    1.2555 C.ar      1 <0>         0.0190
     14 Cl1         5.8835   -0.5029   -0.2984 Cl        1 <0>        -0.0593
     15 N3          4.9922    0.6114    4.6156 N.pl3     1 <0>        -0.6926
     16 C12         5.6128    1.8273    4.4089 C.ar      1 <0>         0.2438
     17 C13         7.0150    1.9620    4.5330 C.ar      1 <0>        -0.0927
     18 C14         7.8198    0.8634    4.8702 C.ar      1 <0>        -0.1598
     19 C15         9.1709    1.0208    4.9830 C.ar      1 <0>         0.1300
     20 C16         9.7644    2.2723    4.7649 C.ar      1 <0>         0.1506
     21 C17         8.9975    3.3657    4.4335 C.ar      1 <0>        -0.1664
     22 C18         7.6060    3.2291    4.3109 C.ar      1 <0>         0.1636
     23 N4          6.8425    4.2831    3.9873 N.ar      1 <0>        -0.4563
     24 C19         5.5431    4.1870    3.8652 C.ar      1 <0>         0.1841
     25 C20         4.8736    2.9686    4.0631 C.ar      1 <0>        -0.0675
     26 C21         3.4511    2.8927    3.9176 C.1       1 <0>         0.2398
     27 N5          2.3226    2.8325    3.8022 N.1       1 <0>        -0.3722
     28 O1         11.1111    2.4069    4.8826 O.3       1 <0>        -0.2932
     29 C22        11.6561    3.7070    4.6481 C.3       1 <0>         0.0559
     30 C23        13.1752    3.6628    4.8252 C.3       1 <0>        -0.1504
     31 C24        13.7586    5.0547    4.5742 C.3       1 <0>        -0.0062
     32 N6         15.2171    5.0122    4.7442 N.4       1 <0>        -0.3843
     33 C25        15.5384    4.7039    6.1445 C.3       1 <0>        -0.0501
     34 C26        17.0585    4.6600    6.3190 C.3       1 <0>         0.0360
     35 O2         17.6158    5.9141    5.9160 O.3       1 <0>        -0.3548
     36 C27        17.3099    6.2704    4.5650 C.3       1 <0>         0.0353
     37 C28        15.7902    6.3173    4.3872 C.3       1 <0>        -0.0435
     38 O3          9.9484   -0.0456    5.3104 O.3       1 <0>        -0.2991
     39 C29         9.2836   -1.2931    5.5202 C.3       1 <0>         0.0234
     40 H1          3.7054   -6.3228    0.5913 H         1 <0>         0.1147
     41 H2          4.7515   -6.7064    1.9794 H         1 <0>         0.1234
     42 H3          3.8048   -5.1991    1.9681 H         1 <0>         0.1106
     43 H4          7.0685   -6.7164    0.6993 H         1 <0>         0.2268
     44 H5          8.4558   -4.8285   -0.4849 H         1 <0>         0.2251
     45 H6          4.2406   -2.4338   -0.6424 H         1 <0>         0.1318
     46 H7          3.3791   -3.5594    0.4343 H         1 <0>         0.1338
     47 H8          3.3877   -3.2460    2.8196 H         1 <0>         0.1418
     48 H9          3.6849   -1.6857    4.6988 H         1 <0>         0.1439
     49 H10         5.9204    0.9326    2.1610 H         1 <0>         0.1400
     50 H11         4.6741    0.3734    5.5006 H         1 <0>         0.4262
     51 H12         7.3714   -0.1042    5.0403 H         1 <0>         0.1479
     52 H13         9.4645    4.3254    4.2683 H         1 <0>         0.1569
     53 H14         4.9722    5.0653    3.6027 H         1 <0>         0.1807
     54 H15        11.4177    4.0232    3.6326 H         1 <0>         0.0800
     55 H16        11.2279    4.4140    5.3587 H         1 <0>         0.0808
     56 H17        13.4135    3.3466    5.8407 H         1 <0>         0.1014
     57 H18        13.6033    2.9558    4.1146 H         1 <0>         0.1011
     58 H19        13.5203    5.3709    3.5587 H         1 <0>         0.1382
     59 H20        13.3304    5.7617    5.2848 H         1 <0>         0.1368
     60 H21        15.1203    5.4748    6.7917 H         1 <0>         0.1413
     61 H22        15.1138    3.7358    6.4103 H         1 <0>         0.1437
     62 H23        17.2996    4.4740    7.3656 H         1 <0>         0.1433
     63 H24        17.4728    3.8625    5.7021 H         1 <0>         0.0818
     64 H25        17.7328    7.2500    4.3422 H         1 <0>         0.1441
     65 H26        17.7328    5.5281    3.8881 H         1 <0>         0.0820
     66 H27        15.5525    6.5470    3.3485 H         1 <0>         0.1443
     67 H28        15.3720    7.0876    5.0351 H         1 <0>         0.1410
     68 H29        10.0177   -2.0577    5.7744 H         1 <0>         0.1099
     69 H30         8.5682   -1.1908    6.3362 H         1 <0>         0.0617
     70 H31         8.7580   -1.5822    4.6102 H         1 <0>         0.0550
     71 H32         6.9009   -2.8303   -0.6723 H         1 <0>         0.4558
     72 H33        15.6051    4.2991    4.1450 H         1 <0>         0.4243
@<TRIPOS>BOND
     1    1    2 1
     2    1   40 1
     3    1   41 1
     4    1   42 1
     5    2    6 1
     6    2    3 1
     7    3    4 2
     8    3   43 1
     9    4    5 1
    10    4   44 1
    11    5    6 2
    12    5   71 1
    13    6    7 1
    14    7    8 1
    15    7   45 1
    16    7   46 1
    17    8   13 ar
    18    8    9 ar
    19    9   10 ar
    20    9   47 1
    21   10   11 ar
    22   10   48 1
    23   11   12 ar
    24   11   15 1
    25   12   13 ar
    26   12   49 1
    27   13   14 1
    28   15   16 1
    29   15   50 1
    30   16   25 ar
    31   16   17 ar
    32   17   22 ar
    33   17   18 ar
    34   18   19 ar
    35   18   51 1
    36   19   20 ar
    37   19   38 1
    38   20   21 ar
    39   20   28 1
    40   21   22 ar
    41   21   52 1
    42   22   23 ar
    43   23   24 ar
    44   24   25 ar
    45   24   53 1
    46   25   26 1
    47   26   27 3
    48   28   29 1
    49   29   30 1
    50   29   54 1
    51   29   55 1
    52   30   31 1
    53   30   56 1
    54   30   57 1
    55   31   32 1
    56   31   58 1
    57   31   59 1
    58   32   37 1
    59   32   33 1
    60   32   72 1
    61   33   34 1
    62   33   60 1
    63   33   61 1
    64   34   35 1
    65   34   62 1
    66   34   63 1
    67   35   36 1
    68   36   37 1
    69   36   64 1
    70   36   65 1
    71   37   66 1
    72   37   67 1
    73   38   39 1
    74   39   68 1
    75   39   69 1
    76   39   70 1
@<TRIPOS>MOLECULE
CHEMBL320688__3
   70    74     0     0     0
SMALL
USER_CHARGES

@<TRIPOS>ATOM
      1 C1         -4.2225    3.9840   -1.3581 C.3       1 <0>         0.0675
      2 N1         -5.2143    3.0351   -1.8700 N.pl3     1 <0>        -0.4579
      3 C2         -6.3653    3.3467   -2.5421 C.2       1 <0>        -0.0595
      4 C3         -6.9777    2.1817   -2.8272 C.2       1 <0>        -0.0268
      5 N2         -6.2213    1.1858   -2.3423 N.2       1 <0>        -0.4722
      6 C4         -5.1609    1.6892   -1.7721 C.2       1 <0>         0.2109
      7 C5         -4.0609    0.8997   -1.1106 C.3       1 <0>         0.0069
      8 C6         -4.3926    0.6987    0.3456 C.ar      1 <0>        -0.1203
      9 C7         -3.8931    1.5725    1.2940 C.ar      1 <0>        -0.0602
     10 C8         -4.1950    1.3914    2.6292 C.ar      1 <0>        -0.1739
     11 C9         -5.0021    0.3301    3.0203 C.ar      1 <0>         0.2170
     12 C10        -5.5029   -0.5460    2.0660 C.ar      1 <0>        -0.1731
     13 C11        -5.2010   -0.3565    0.7304 C.ar      1 <0>         0.0267
     14 Cl1        -5.8315   -1.4466   -0.4645 Cl        1 <0>        -0.0394
     15 N3         -5.3088    0.1442    4.3707 N.pl3     1 <0>        -0.7021
     16 C12        -6.0086   -0.9764    4.7719 C.ar      1 <0>         0.2608
     17 C13        -7.4215   -0.9733    4.8297 C.ar      1 <0>        -0.0982
     18 C14        -8.1568    0.1695    4.4808 C.ar      1 <0>        -0.1589
     19 C15        -9.5199    0.1455    4.5451 C.ar      1 <0>         0.1285
     20 C16       -10.1948   -1.0124    4.9573 C.ar      1 <0>         0.1601
     21 C17        -9.4971   -2.1463    5.3052 C.ar      1 <0>        -0.1774
     22 C18        -8.0948   -2.1466    5.2468 C.ar      1 <0>         0.1678
     23 N4         -7.3979   -3.2428    5.5807 N.ar      1 <0>        -0.4608
     24 C19        -6.0905   -3.2738    5.5359 C.ar      1 <0>         0.1788
     25 C20        -5.3414   -2.1576    5.1301 C.ar      1 <0>        -0.0879
     26 C21        -3.9115   -2.2228    5.0862 C.1       1 <0>         0.2549
     27 N5         -2.7773   -2.2745    5.0514 N.1       1 <0>        -0.3942
     28 O1        -11.5522   -1.0146    5.0142 O.3       1 <0>        -0.2921
     29 C22       -12.1815   -2.2243    5.4416 C.3       1 <0>         0.0546
     30 C23       -13.7000   -2.0366    5.4421 C.3       1 <0>        -0.1159
     31 C24       -14.3738   -3.3317    5.8998 C.3       1 <0>         0.0587
     32 N6        -15.8317   -3.1514    5.9003 N.3       1 <0>        -0.5362
     33 C25       -16.2413   -2.1732    6.9184 C.3       1 <0>         0.0126
     34 C26       -17.7572   -1.9718    6.8442 C.3       1 <0>         0.0624
     35 O2        -18.4094   -3.2334    7.0123 O.3       1 <0>        -0.3854
     36 C27       -18.0341   -4.2100    6.0372 C.3       1 <0>         0.0626
     37 C28       -16.5211   -4.4340    6.1031 C.3       1 <0>         0.0174
     38 O3        -10.2300    1.2548    4.2068 O.3       1 <0>        -0.2971
     39 C29        -9.4840    2.4021    3.7956 C.3       1 <0>         0.0232
     40 H1         -3.4719    4.1742   -2.1253 H         1 <0>         0.0781
     41 H2         -4.7167    4.9188   -1.0935 H         1 <0>         0.0866
     42 H3         -3.7408    3.5649   -0.4746 H         1 <0>         0.0850
     43 H4         -6.7152    4.3367   -2.7950 H         1 <0>         0.1728
     44 H5         -7.9138    2.0691   -3.3538 H         1 <0>         0.1686
     45 H6         -3.9657   -0.0702   -1.5988 H         1 <0>         0.1085
     46 H7         -3.1204    1.4439   -1.1973 H         1 <0>         0.0887
     47 H8         -3.2659    2.3974    0.9900 H         1 <0>         0.1314
     48 H9         -3.8038    2.0741    3.3691 H         1 <0>         0.1315
     49 H10        -6.1302   -1.3721    2.3667 H         1 <0>         0.1313
     50 H11        -5.0301    0.8025    5.0264 H         1 <0>         0.4196
     51 H12        -7.6455    1.0660    4.1625 H         1 <0>         0.1474
     52 H13       -10.0266   -3.0326    5.6220 H         1 <0>         0.1566
     53 H14        -5.5751   -4.1810    5.8148 H         1 <0>         0.1741
     54 H15       -11.9156   -3.0326    4.7604 H         1 <0>         0.0714
     55 H16       -11.8458   -2.4724    6.4485 H         1 <0>         0.0685
     56 H17       -13.9659   -1.2282    6.1233 H         1 <0>         0.0764
     57 H18       -14.0357   -1.7885    4.4352 H         1 <0>         0.0867
     58 H19       -14.1079   -4.1400    5.2186 H         1 <0>         0.0819
     59 H20       -14.0380   -3.5798    6.9067 H         1 <0>         0.0404
     60 H21       -15.9712   -2.5426    7.9076 H         1 <0>         0.0445
     61 H22       -15.7386   -1.2238    6.7340 H         1 <0>         0.0903
     62 H23       -18.0729   -1.2907    7.6345 H         1 <0>         0.0992
     63 H24       -18.0215   -1.5519    5.8737 H         1 <0>         0.0611
     64 H25       -18.5502   -5.1476    6.2437 H         1 <0>         0.0997
     65 H26       -18.3065   -3.8551    5.0432 H         1 <0>         0.0612
     66 H27       -16.2226   -5.1349    5.3236 H         1 <0>         0.0884
     67 H28       -16.2554   -4.8396    7.0794 H         1 <0>         0.0447
     68 H29       -10.1699    3.2143    3.5548 H         1 <0>         0.1068
     69 H30        -8.8216    2.7135    4.6034 H         1 <0>         0.0576
     70 H31        -8.8914    2.1539    2.9151 H         1 <0>         0.0588
@<TRIPOS>BOND
     1    1    2 1
     2    1   40 1
     3    1   41 1
     4    1   42 1
     5    2    6 1
     6    2    3 1
     7    3    4 2
     8    3   43 1
     9    4    5 1
    10    4   44 1
    11    5    6 2
    12    6    7 1
    13    7    8 1
    14    7   45 1
    15    7   46 1
    16    8   13 ar
    17    8    9 ar
    18    9   10 ar
    19    9   47 1
    20   10   11 ar
    21   10   48 1
    22   11   12 ar
    23   11   15 1
    24   12   13 ar
    25   12   49 1
    26   13   14 1
    27   15   16 1
    28   15   50 1
    29   16   25 ar
    30   16   17 ar
    31   17   22 ar
    32   17   18 ar
    33   18   19 ar
    34   18   51 1
    35   19   20 ar
    36   19   38 1
    37   20   21 ar
    38   20   28 1
    39   21   22 ar
    40   21   52 1
    41   22   23 ar
    42   23   24 ar
    43   24   25 ar
    44   24   53 1
    45   25   26 1
    46   26   27 3
    47   28   29 1
    48   29   30 1
    49   29   54 1
    50   29   55 1
    51   30   31 1
    52   30   56 1
    53   30   57 1
    54   31   32 1
    55   31   58 1
    56   31   59 1
    57   32   37 1
    58   32   33 1
    59   33   34 1
    60   33   60 1
    61   33   61 1
    62   34   35 1
    63   34   62 1
    64   34   63 1
    65   35   36 1
    66   36   37 1
    67   36   64 1
    68   36   65 1
    69   37   66 1
    70   37   67 1
    71   38   39 1
    72   39   68 1
    73   39   69 1
    74   39   70 1
