@<TRIPOS>MOLECULE
3EQH-5BM
 42 43 0 0 0
SMALL
SF_CHARGES


@<TRIPOS>ATOM
1    C        -1.3930   57.2140   33.8100  C.2        1 SUBUNIT      0.0269
2    C        -0.3030   56.2970   33.8790  C.1        1 SUBUNIT      0.3183
3    N         0.5780   55.5650   33.9350  N.1        1 SUBUNIT     -0.4703
4    C        -2.6050   56.6980   33.5330  C.2        1 SUBUNIT      0.1839
5    N        -3.8140   57.3410   33.4220  N.pl3      1 SUBUNIT     -0.6748
6    S        -2.7680   54.9500   33.2910  S.3        1 SUBUNIT     -0.1207
7    C        -3.7050   54.6440   31.8110  C.2        1 SUBUNIT      0.0024
8    C        -4.8210   53.7630   31.8450  C.2        1 SUBUNIT      0.1154
9    C        -5.5490   53.5100   30.6600  C.2        1 SUBUNIT     -0.1126
10   C        -5.1600   54.1170   29.4590  C.2        1 SUBUNIT     -0.1014
11   C        -4.0480   54.9890   29.4230  C.2        1 SUBUNIT     -0.1020
12   C        -3.3200   55.2470   30.5950  C.2        1 SUBUNIT     -0.1086
13   N        -5.2110   53.1700   32.9850  N.pl3      1 SUBUNIT     -0.6567
14   C        -1.1740   58.4790   34.4540  C.2        1 SUBUNIT      0.0269
15   C        -2.0020   58.7300   35.5890  C.1        1 SUBUNIT      0.3183
16   N        -2.7190   58.8910   36.5040  N.1        1 SUBUNIT     -0.4703
17   C        -0.0730   59.2340   34.2070  C.2        1 SUBUNIT      0.1839
18   N         0.8360   59.1210   33.1460  N.pl3      1 SUBUNIT     -0.6748
19   S         0.3960   60.5360   35.2570  S.3        1 SUBUNIT     -0.1207
20   C         1.2360   61.7500   34.3370  C.2        1 SUBUNIT      0.0024
21   C         0.5120   62.7550   33.6100  C.2        1 SUBUNIT      0.1154
22   C         1.2480   63.7260   32.9010  C.2        1 SUBUNIT     -0.1126
23   C         2.6680   63.6810   32.9300  C.2        1 SUBUNIT     -0.1014
24   C         3.3470   62.6940   33.6610  C.2        1 SUBUNIT     -0.1020
25   C         2.6340   61.7370   34.3620  C.2        1 SUBUNIT     -0.1086
26   N        -0.8360   62.7920   33.5870  N.pl3      1 SUBUNIT     -0.6567
27   H        -4.6467   56.8151   33.2072  H          1 SUBUNIT      0.3246
28   H        -3.8684   58.3387   33.5553  H          1 SUBUNIT      0.3246
29   H        -6.4011   52.8531   30.6757  H          1 SUBUNIT      0.1047
30   H        -5.7149   53.9150   28.5595  H          1 SUBUNIT      0.1037
31   H        -3.7567   55.4568   28.4988  H          1 SUBUNIT      0.1029
32   H        -2.4691   55.9048   30.5633  H          1 SUBUNIT      0.1022
33   H        -6.0053   52.5493   32.9841  H          1 SUBUNIT      0.3187
34   H        -4.7095   53.3455   33.8416  H          1 SUBUNIT      0.3187
35   H         1.6181   59.7538   33.0828  H          1 SUBUNIT      0.3246
36   H         0.7076   58.4070   32.4462  H          1 SUBUNIT      0.3246
37   H         0.7360   64.4917   32.3448  H          1 SUBUNIT      0.1047
38   H         3.2379   64.4128   32.3846  H          1 SUBUNIT      0.1037
39   H         4.4226   62.6752   33.6810  H          1 SUBUNIT      0.1029
40   H         3.1601   60.9855   34.9244  H          1 SUBUNIT      0.1022
41   H        -1.3116   63.5120   33.0660  H          1 SUBUNIT      0.3187
42   H        -1.3679   62.0996   34.0908  H          1 SUBUNIT      0.3187
@<TRIPOS>BOND
     1    1    2 1
     2    1    4 2
     3    1   14 1
     4    2    3 3
     5    4    5 1
     6    4    6 1
     7    6    7 1
     8    7    8 2
     9    7   12 1
    10    8    9 1
    11    8   13 1
    12    9   10 2
    13   10   11 1
    14   11   12 2
    15   14   15 1
    16   14   17 2
    17   15   16 3
    18   17   18 1
    19   17   19 1
    20   19   20 1
    21   20   21 2
    22   20   25 1
    23   21   22 1
    24   21   26 1
    25   22   23 2
    26   23   24 1
    27   24   25 2
    28    5   27 1
    29    5   28 1
    30    9   29 1
    31   10   30 1
    32   11   31 1
    33   12   32 1
    34   13   33 1
    35   13   34 1
    36   18   35 1
    37   18   36 1
    38   22   37 1
    39   23   38 1
    40   24   39 1
    41   25   40 1
    42   26   41 1
    43   26   42 1
