@<TRIPOS>MOLECULE
CHEMBL246910
   42    45     0     0     0
SMALL
USER_CHARGES

@<TRIPOS>ATOM
      1 C1         -0.0162    1.5289    0.0014 C.3       1 <0>        -0.1452
      2 C2          0.0024   -0.0010    0.0041 C.3       1 <0>        -0.0437
      3 C3         -1.4317   -0.5306    0.0359 C.3       1 <0>         0.1148
      4 N1         -2.0602   -0.3606    1.3395 N.am      1 <0>        -0.7150
      5 C4         -1.3865   -0.5349    2.4993 C.2       1 <0>         0.5937
      6 O1         -1.9562   -0.5180    3.5739 O.2       1 <0>        -0.5313
      7 C5          0.0688   -0.7468    2.4026 C.2       1 <0>         0.0025
      8 C6          0.7322   -0.4945    1.2263 C.2       1 <0>        -0.0917
      9 C7          2.0811   -0.7784    1.4358 C.ar      1 <0>        -0.1141
     10 C8          3.2023   -0.7018    0.6002 C.ar      1 <0>         0.0224
     11 C9          4.4273   -1.0739    1.1561 C.ar      1 <0>        -0.1728
     12 C10         4.5323   -1.5033    2.4845 C.ar      1 <0>        -0.0625
     13 C11         3.4456   -1.5831    3.3132 C.ar      1 <0>        -0.1275
     14 C12         2.2058   -1.2165    2.7856 C.ar      1 <0>         0.1313
     15 N2          0.9636   -1.1860    3.3462 N.pl3     1 <0>        -0.5361
     16 H1          0.7482   -1.4328    4.2593 H         1 <0>         0.4295
     17 C13         5.6436   -1.0137    0.3216 C.2       1 <0>         0.5652
     18 O2          5.5701   -0.6435   -0.8342 O.2       1 <0>        -0.5176
     19 N3          6.8354   -1.3691    0.8409 N.am      1 <0>        -0.6719
     20 C14         7.9711   -1.4052    0.0250 C.ar      1 <0>         0.1452
     21 C15         8.9457   -2.3744    0.2329 C.ar      1 <0>        -0.1146
     22 C16        10.0700   -2.4142   -0.5700 C.ar      1 <0>        -0.0992
     23 C17        10.2329   -1.4920   -1.5838 C.ar      1 <0>        -0.0845
     24 C18         9.2596   -0.5146   -1.8013 C.ar      1 <0>        -0.0088
     25 C19         8.1218   -0.4780   -0.9942 C.ar      1 <0>        -0.0744
     26 C20         9.4261    0.4439   -2.8522 C.1       1 <0>         0.2529
     27 N4          9.5582    1.2042   -3.6858 N.1       1 <0>        -0.4097
     28 H2          1.0068    1.9048   -0.0109 H         1 <0>         0.0636
     29 H3         -0.5445    1.8843   -0.8833 H         1 <0>         0.0669
     30 H4         -0.5244    1.8876    0.8965 H         1 <0>         0.0558
     31 H5          0.5067   -0.3614   -0.8926 H         1 <0>         0.1067
     32 H6         -2.0206    0.0011   -0.7115 H         1 <0>         0.0958
     33 H7         -1.4215   -1.5912   -0.2151 H         1 <0>         0.0716
     34 H8         -2.9973   -0.1127    1.3769 H         1 <0>         0.4113
     35 H9          3.1230   -0.3704   -0.4247 H         1 <0>         0.1497
     36 H10         5.5029   -1.7813    2.8681 H         1 <0>         0.1278
     37 H11         3.5434   -1.9168    4.3357 H         1 <0>         0.1405
     38 H12         6.9057   -1.5999    1.7804 H         1 <0>         0.4134
     39 H13         8.8241   -3.0986    1.0248 H         1 <0>         0.1349
     40 H14        10.8238   -3.1694   -0.4033 H         1 <0>         0.1397
     41 H15        11.1131   -1.5260   -2.2086 H         1 <0>         0.1354
     42 H16         7.3636    0.2730   -1.1600 H         1 <0>         0.1499
@<TRIPOS>BOND
     1    1    2 1
     2    1   28 1
     3    1   29 1
     4    1   30 1
     5    2    8 1
     6    2    3 1
     7    2   31 1
     8    3    4 1
     9    3   32 1
    10    3   33 1
    11    4    5 am
    12    4   34 1
    13    5    6 2
    14    5    7 1
    15    7   15 1
    16    7    8 2
    17    8    9 1
    18    9   14 ar
    19    9   10 ar
    20   10   11 ar
    21   10   35 1
    22   11   12 ar
    23   11   17 1
    24   12   13 ar
    25   12   36 1
    26   13   14 ar
    27   13   37 1
    28   14   15 1
    29   15   16 1
    30   17   18 2
    31   17   19 am
    32   19   20 1
    33   19   38 1
    34   20   25 ar
    35   20   21 ar
    36   21   22 ar
    37   21   39 1
    38   22   23 ar
    39   22   40 1
    40   23   24 ar
    41   23   41 1
    42   24   25 ar
    43   24   26 1
    44   25   42 1
    45   26   27 3
@<TRIPOS>MOLECULE
CHEMBL246910__1
   42    45     0     0     0
SMALL
USER_CHARGES

@<TRIPOS>ATOM
      1 C1         -0.0076    1.5222    0.0131 C.3       1 <0>        -0.1452
      2 C2          0.0023   -0.0077    0.0013 C.3       1 <0>        -0.0437
      3 C3          0.7249   -0.5054   -1.2511 C.3       1 <0>         0.1147
      4 N1          2.1682   -0.3213   -1.1726 N.am      1 <0>        -0.7149
      5 C4          2.8638   -0.5111   -0.0283 C.2       1 <0>         0.5937
      6 O1          4.0797   -0.4813   -0.0113 O.2       1 <0>        -0.5313
      7 C5          2.0824   -0.7550    1.1973 C.2       1 <0>         0.0025
      8 C6          0.7291   -0.5170    1.2188 C.2       1 <0>        -0.0918
      9 C7          0.2678   -0.8314    2.4964 C.ar      1 <0>        -0.1139
     10 C8         -1.0047   -0.7811    3.0789 C.ar      1 <0>         0.0223
     11 C9         -1.1018   -1.1813    4.4126 C.ar      1 <0>        -0.1728
     12 C10         0.0174   -1.6124    5.1348 C.ar      1 <0>        -0.0626
     13 C11         1.2673   -1.6668    4.5790 C.ar      1 <0>        -0.1274
     14 C12         1.3964   -1.2718    3.2459 C.ar      1 <0>         0.1312
     15 N2          2.4850   -1.2138    2.4267 N.pl3     1 <0>        -0.5362
     16 H1          3.3917   -1.4564    2.6715 H         1 <0>         0.4296
     17 C13        -2.4188   -1.1487    5.0790 C.2       1 <0>         0.5652
     18 O2         -3.4010   -0.7766    4.4666 O.2       1 <0>        -0.5176
     19 N3         -2.5322   -1.5314    6.3663 N.am      1 <0>        -0.6719
     20 C14        -3.7593   -1.4093    7.0267 C.ar      1 <0>         0.1452
     21 C15        -3.7922   -1.0774    8.3763 C.ar      1 <0>        -0.1146
     22 C16        -5.0019   -0.9559    9.0337 C.ar      1 <0>        -0.0992
     23 C17        -6.1855   -1.1633    8.3550 C.ar      1 <0>        -0.0845
     24 C18        -6.1636   -1.4966    6.9991 C.ar      1 <0>        -0.0089
     25 C19        -4.9423   -1.6137    6.3341 C.ar      1 <0>        -0.0744
     26 C20        -7.3901   -1.7128    6.2924 C.1       1 <0>         0.2530
     27 N4         -8.3631   -1.8842    5.7317 N.1       1 <0>        -0.4097
     28 H2          1.0176    1.8923    0.0045 H         1 <0>         0.0559
     29 H3         -0.5337    1.8890   -0.8683 H         1 <0>         0.0668
     30 H4         -0.5138    1.8753    0.9115 H         1 <0>         0.0637
     31 H5         -1.0223   -0.3794    0.0056 H         1 <0>         0.1066
     32 H6          0.5113   -1.5661   -1.3833 H         1 <0>         0.0715
     33 H7          0.3465    0.0390   -2.1163 H         1 <0>         0.0958
     34 H8          2.6485   -0.0528   -1.9715 H         1 <0>         0.4114
     35 H9         -1.8692   -0.4492    2.5231 H         1 <0>         0.1497
     36 H10        -0.1096   -1.9124    6.1644 H         1 <0>         0.1278
     37 H11         2.1208   -2.0016    5.1499 H         1 <0>         0.1405
     38 H12        -1.7630   -1.8915    6.8349 H         1 <0>         0.4134
     39 H13        -2.8693   -0.9143    8.9130 H         1 <0>         0.1349
     40 H14        -5.0209   -0.6982   10.0823 H         1 <0>         0.1397
     41 H15        -7.1287   -1.0681    8.8725 H         1 <0>         0.1354
     42 H16        -4.9189   -1.8673    5.2846 H         1 <0>         0.1499
@<TRIPOS>BOND
     1    1    2 1
     2    1   28 1
     3    1   29 1
     4    1   30 1
     5    2    8 1
     6    2    3 1
     7    2   31 1
     8    3    4 1
     9    3   32 1
    10    3   33 1
    11    4    5 am
    12    4   34 1
    13    5    6 2
    14    5    7 1
    15    7   15 1
    16    7    8 2
    17    8    9 1
    18    9   14 ar
    19    9   10 ar
    20   10   11 ar
    21   10   35 1
    22   11   12 ar
    23   11   17 1
    24   12   13 ar
    25   12   36 1
    26   13   14 ar
    27   13   37 1
    28   14   15 1
    29   15   16 1
    30   17   18 2
    31   17   19 am
    32   19   20 1
    33   19   38 1
    34   20   25 ar
    35   20   21 ar
    36   21   22 ar
    37   21   39 1
    38   22   23 ar
    39   22   40 1
    40   23   24 ar
    41   23   41 1
    42   24   25 ar
    43   24   26 1
    44   25   42 1
    45   26   27 3
@<TRIPOS>MOLECULE
CHEMBL560075
   42    46     0     0     0
SMALL
USER_CHARGES

@<TRIPOS>ATOM
      1 C1         -0.0187    1.5258    0.0104 C.3       1 <0>        -0.1636
      2 C2          0.0021   -0.0041    0.0020 C.3       1 <0>         0.1103
      3 H1         -1.0258   -0.3668    0.0099 H         1 <0>         0.0765
      4 C3          0.6716   -0.4727   -1.2697 C.3       1 <0>         0.1101
      5 N1          0.4742   -1.8798   -1.5205 N.pl3     1 <0>        -0.7323
      6 C4          1.0810   -2.8878   -0.7634 C.2       1 <0>         0.2479
      7 C5          1.3930   -4.1410   -1.3580 C.ar      1 <0>        -0.1227
      8 C6          1.1596   -4.5502   -2.7589 C.ar      1 <0>        -0.0477
      9 C7          0.5679   -3.6624   -3.6682 C.ar      1 <0>        -0.0784
     10 C8          0.3782   -4.0868   -4.9538 C.ar      1 <0>        -0.1459
     11 C9          0.7745   -5.3797   -5.3220 C.ar      1 <0>         0.1924
     12 N2          1.3286   -6.2053   -4.4539 N.ar      1 <0>        -0.4544
     13 C10         1.5350   -5.8411   -3.1845 C.ar      1 <0>         0.1377
     14 C11         2.1267   -6.7421   -2.2718 C.ar      1 <0>        -0.0534
     15 C12         2.3423   -6.3690   -0.9853 C.ar      1 <0>        -0.0610
     16 C13         1.9921   -5.1027   -0.5305 C.ar      1 <0>        -0.0947
     17 S1          2.1273   -4.2798    1.0358 S.3       1 <0>         0.1958
     18 C14         1.4037   -2.7169    0.5727 C.2       1 <0>        -0.2889
     19 C15         1.2406   -1.6220    1.4209 C.2       1 <0>         0.6028
     20 O1          1.7062   -1.7606    2.5376 O.2       1 <0>        -0.5678
     21 N3          0.6640   -0.4642    1.1982 N.am      1 <0>        -0.6962
     22 C16         0.5671   -5.8305   -6.7195 C.ar      1 <0>        -0.1072
     23 C17         0.8500   -7.1486   -7.0903 C.ar      1 <0>        -0.0340
     24 C18         0.6394   -7.5196   -8.4069 C.ar      1 <0>        -0.1752
     25 C19         0.1604   -6.5834   -9.3054 C.ar      1 <0>         0.1101
     26 N4         -0.0972   -5.3466   -8.9263 N.ar      1 <0>        -0.4837
     27 C20         0.0816   -4.9489   -7.6832 C.ar      1 <0>         0.1217
     28 H2          1.0039    1.9031    0.0027 H         1 <0>         0.0687
     29 H3         -0.5459    1.8868   -0.8726 H         1 <0>         0.0789
     30 H4         -0.5289    1.8773    0.9072 H         1 <0>         0.0704
     31 H5          0.2680    0.0940   -2.1088 H         1 <0>         0.1053
     32 H6          1.7412   -0.2753   -1.1972 H         1 <0>         0.0735
     33 H7         -0.1090   -2.1400   -2.2507 H         1 <0>         0.4011
     34 H8          0.2699   -2.6706   -3.3616 H         1 <0>         0.1468
     35 H9         -0.0749   -3.4298   -5.6814 H         1 <0>         0.1455
     36 H10         2.4083   -7.7320   -2.5992 H         1 <0>         0.1514
     37 H11         2.7955   -7.0702   -0.3003 H         1 <0>         0.1467
     38 H12         0.6836    0.1640    1.9371 H         1 <0>         0.4054
     39 H13         1.2237   -7.8590   -6.3677 H         1 <0>         0.1470
     40 H14         0.8473   -8.5291   -8.7294 H         1 <0>         0.1414
     41 H15        -0.0051   -6.8695  -10.3336 H         1 <0>         0.1605
     42 H16        -0.1458   -3.9291   -7.4096 H         1 <0>         0.1592
@<TRIPOS>BOND
     1    1    2 1
     2    1   28 1
     3    1   29 1
     4    1   30 1
     5    2    3 1
     6    2   21 1
     7    2    4 1
     8    4    5 1
     9    4   31 1
    10    4   32 1
    11    5    6 1
    12    5   33 1
    13    6   18 2
    14    6    7 1
    15    7   16 ar
    16    7    8 ar
    17    8   13 ar
    18    8    9 ar
    19    9   10 ar
    20    9   34 1
    21   10   11 ar
    22   10   35 1
    23   11   12 ar
    24   11   22 1
    25   12   13 ar
    26   13   14 ar
    27   14   15 ar
    28   14   36 1
    29   15   16 ar
    30   15   37 1
    31   16   17 1
    32   17   18 1
    33   18   19 1
    34   19   20 2
    35   19   21 am
    36   21   38 1
    37   22   27 ar
    38   22   23 ar
    39   23   24 ar
    40   23   39 1
    41   24   25 ar
    42   24   40 1
    43   25   26 ar
    44   25   41 1
    45   26   27 ar
    46   27   42 1
@<TRIPOS>MOLECULE
CHEMBL604510
   56    61     0     0     0
SMALL
USER_CHARGES

@<TRIPOS>ATOM
      1 C1         -0.0178    1.4608    0.0101 C.3       1 <0>         0.0769
      2 N1          0.0021   -0.0041    0.0020 N.pl3     1 <0>        -0.4891
      3 C2          0.0080   -0.7840   -1.1220 C.2       1 <0>         0.0536
      4 C3          0.0276   -2.0822   -0.7788 C.2       1 <0>        -0.2049
      5 C4          0.0347   -2.1389    0.6845 C.ar      1 <0>        -0.1035
      6 C5          0.0236   -0.8017    1.1251 C.ar      1 <0>         0.0951
      7 C6          0.0319   -0.5314    2.4870 C.ar      1 <0>        -0.1122
      8 C7          0.0545   -1.5812    3.3968 C.ar      1 <0>        -0.0314
      9 C8          0.0693   -2.9061    2.9484 C.ar      1 <0>        -0.1316
     10 C9          0.0533   -3.1831    1.6129 C.ar      1 <0>        -0.0677
     11 C10         0.0635   -1.2954    4.8522 C.ar      1 <0>        -0.0114
     12 C11         0.0436    0.0229    5.3059 C.ar      1 <0>        -0.1250
     13 C12         0.0520    0.2871    6.6607 C.ar      1 <0>        -0.0854
     14 C13         0.0807   -0.7522    7.5716 C.ar      1 <0>        -0.1464
     15 C14         0.1012   -2.0688    7.1286 C.ar      1 <0>         0.1708
     16 C15         0.0861   -2.3430    5.7693 C.ar      1 <0>        -0.1107
     17 N2          0.1311   -3.1192    8.0548 N.pl3     1 <0>        -0.3125
     18 C16         0.0421   -2.9926    9.3955 C.2       1 <0>         0.1019
     19 C17         0.1105   -4.2450    9.9360 C.2       1 <0>        -0.2357
     20 C18         0.2468   -5.1623    8.8662 C.2       1 <0>         0.3682
     21 N3          0.2524   -4.4795    7.7471 N.2       1 <0>        -0.3451
     22 N4          0.3509   -6.5502    8.9822 N.pl3     1 <0>        -0.8365
     23 C19         0.0530   -4.5819   11.3775 C.ar      1 <0>         0.0375
     24 C20         0.8738   -3.9077   12.2832 C.ar      1 <0>        -0.1249
     25 C21         0.8260   -4.2144   13.6145 C.ar      1 <0>        -0.0471
     26 C22        -0.0465   -5.2032   14.0683 C.ar      1 <0>        -0.1459
     27 C23        -0.8729   -5.8815   13.1651 C.ar      1 <0>        -0.0423
     28 C24        -0.8265   -5.5693   11.8276 C.ar      1 <0>        -0.1242
     29 C25        -1.8080   -6.9435   13.6794 C.3       1 <0>        -0.1038
     30 C26        -1.1681   -7.6730   14.8583 C.3       1 <0>         0.1135
     31 N5         -0.6833   -6.7271   15.8596 N.am      1 <0>        -0.7276
     32 C27        -0.1189   -5.5570   15.5002 C.2       1 <0>         0.5653
     33 O1          0.3248   -4.8024   16.3440 O.2       1 <0>        -0.5353
     34 H1          1.0048    1.8381    0.0023 H         1 <0>         0.0701
     35 H2         -0.5450    1.8219   -0.8730 H         1 <0>         0.0842
     36 H3         -0.5280    1.8123    0.9069 H         1 <0>         0.0803
     37 H4         -0.0019   -0.4108   -2.1354 H         1 <0>         0.1695
     38 H5          0.0358   -2.9249   -1.4542 H         1 <0>         0.1484
     39 H6          0.0213    0.4901    2.8375 H         1 <0>         0.1230
     40 H7          0.0876   -3.7147    3.6640 H         1 <0>         0.1271
     41 H8          0.0657   -4.2083    1.2733 H         1 <0>         0.1259
     42 H9          0.0219    0.8375    4.5971 H         1 <0>         0.1295
     43 H10         0.0365    1.3089    7.0101 H         1 <0>         0.1355
     44 H11         0.0875   -0.5401    8.6305 H         1 <0>         0.1307
     45 H12         0.0971   -3.3659    5.4229 H         1 <0>         0.1431
     46 H13        -0.0637   -2.0675    9.9425 H         1 <0>         0.1818
     47 H14         0.3326   -6.9664    9.8582 H         1 <0>         0.4113
     48 H15         0.4415   -7.0979    8.1868 H         1 <0>         0.4070
     49 H16         1.5489   -3.1419   11.9310 H         1 <0>         0.1303
     50 H17         1.4627   -3.6923   14.3134 H         1 <0>         0.1366
     51 H18        -1.4645   -6.0877   11.1272 H         1 <0>         0.1300
     52 H19        -2.7397   -6.4796   14.0032 H         1 <0>         0.0895
     53 H20        -2.0183   -7.6573   12.8829 H         1 <0>         0.0984
     54 H21        -1.9070   -8.3309   15.3158 H         1 <0>         0.0908
     55 H22        -0.3319   -8.2718   14.4973 H         1 <0>         0.0688
     56 H23        -0.7690   -6.9448   16.8010 H         1 <0>         0.4058
@<TRIPOS>BOND
     1    1    2 1
     2    1   34 1
     3    1   35 1
     4    1   36 1
     5    2    6 1
     6    2    3 1
     7    3    4 2
     8    3   37 1
     9    4    5 1
    10    4   38 1
    11    5   10 ar
    12    5    6 ar
    13    6    7 ar
    14    7    8 ar
    15    7   39 1
    16    8    9 ar
    17    8   11 1
    18    9   10 ar
    19    9   40 1
    20   10   41 1
    21   11   16 ar
    22   11   12 ar
    23   12   13 ar
    24   12   42 1
    25   13   14 ar
    26   13   43 1
    27   14   15 ar
    28   14   44 1
    29   15   16 ar
    30   15   17 1
    31   16   45 1
    32   17   21 1
    33   17   18 1
    34   18   19 2
    35   18   46 1
    36   19   20 1
    37   19   23 1
    38   20   21 2
    39   20   22 1
    40   22   47 1
    41   22   48 1
    42   23   28 ar
    43   23   24 ar
    44   24   25 ar
    45   24   49 1
    46   25   26 ar
    47   25   50 1
    48   26   32 1
    49   26   27 ar
    50   27   28 ar
    51   27   29 1
    52   28   51 1
    53   29   30 1
    54   29   52 1
    55   29   53 1
    56   30   31 1
    57   30   54 1
    58   30   55 1
    59   31   32 am
    60   31   56 1
    61   32   33 2
@<TRIPOS>MOLECULE
CHEMBL597839
   53    58     0     0     0
SMALL
USER_CHARGES

@<TRIPOS>ATOM
      1 C1         -0.0167    1.3776    0.0096 C.ar      1 <0>        -0.0854
      2 C2          1.1671    2.0883    0.0021 C.ar      1 <0>        -0.1250
      3 C3          2.3861    1.4123   -0.0136 C.ar      1 <0>        -0.0122
      4 C4          2.4058    0.0197   -0.0213 C.ar      1 <0>        -0.1108
      5 C5          1.2127   -0.6863   -0.0133 C.ar      1 <0>         0.1708
      6 C6          0.0021   -0.0041    0.0020 C.ar      1 <0>        -0.1464
      7 N1          1.2275   -2.0870   -0.0214 N.pl3     1 <0>        -0.3124
      8 C7          0.1415   -2.8881   -0.0204 C.2       1 <0>         0.1018
      9 C8          0.5799   -4.1816   -0.0306 C.2       1 <0>        -0.2355
     10 C9          1.9954   -4.1500   -0.0381 C.2       1 <0>         0.3683
     11 N2          2.3712   -2.8940   -0.0381 N.2       1 <0>        -0.3453
     12 N3          2.8419   -5.2608   -0.0494 N.pl3     1 <0>        -0.8364
     13 C10        -0.2697   -5.3951   -0.0327 C.ar      1 <0>         0.0374
     14 C11        -1.3042   -5.5223    0.8959 C.ar      1 <0>        -0.1249
     15 C12        -2.0914   -6.6399    0.8996 C.ar      1 <0>        -0.0471
     16 C13        -1.8600   -7.6551   -0.0281 C.ar      1 <0>        -0.1458
     17 C14        -0.8252   -7.5326   -0.9625 C.ar      1 <0>        -0.0423
     18 C15        -0.0373   -6.4067   -0.9675 C.ar      1 <0>        -0.1242
     19 C16        -0.5968   -8.6407   -1.9558 C.3       1 <0>        -0.1038
     20 C17        -0.9203   -9.9883   -1.3147 C.3       1 <0>         0.1135
     21 N4         -2.2404   -9.9687   -0.6907 N.am      1 <0>        -0.7276
     22 C18        -2.6932   -8.8741   -0.0475 C.2       1 <0>         0.5653
     23 O1         -3.7740   -8.8901    0.5092 O.2       1 <0>        -0.5353
     24 C19         3.6588    2.1741   -0.0227 C.ar      1 <0>        -0.0306
     25 C20         4.8789    1.4895   -0.0442 C.ar      1 <0>        -0.1307
     26 C21         6.0562    2.1774   -0.0528 C.ar      1 <0>        -0.0684
     27 C22         6.0473    3.5751   -0.0399 C.ar      1 <0>        -0.1039
     28 C23         7.0968    4.5965   -0.0439 C.2       1 <0>        -0.2060
     29 C24         6.4831    5.7908   -0.0252 C.2       1 <0>         0.0544
     30 N5          5.1261    5.6181   -0.0097 N.pl3     1 <0>        -0.5964
     31 H1          4.4730    6.3352    0.0051 H         1 <0>         0.4164
     32 C25         4.8255    4.2737   -0.0182 C.ar      1 <0>         0.0937
     33 C26         3.6322    3.5629   -0.0154 C.ar      1 <0>        -0.1135
     34 H2         -0.9600    1.9031    0.0260 H         1 <0>         0.1357
     35 H3          1.1486    3.1681    0.0081 H         1 <0>         0.1302
     36 H4          3.3477   -0.5086   -0.0339 H         1 <0>         0.1433
     37 H5         -0.9267   -0.5553    0.0083 H         1 <0>         0.1307
     38 H6         -0.8889   -2.5647   -0.0125 H         1 <0>         0.1819
     39 H7          2.4677   -6.1557   -0.0528 H         1 <0>         0.4114
     40 H8          3.8040   -5.1373   -0.0539 H         1 <0>         0.4070
     41 H9         -1.4829   -4.7355    1.6138 H         1 <0>         0.1303
     42 H10        -2.8905   -6.7366    1.6196 H         1 <0>         0.1366
     43 H11         0.7604   -6.3061   -1.6885 H         1 <0>         0.1300
     44 H12        -1.2401   -8.4884   -2.8224 H         1 <0>         0.0895
     45 H13         0.4456   -8.6323   -2.2743 H         1 <0>         0.0984
     46 H14        -0.8979  -10.7635   -2.0806 H         1 <0>         0.0908
     47 H15        -0.1697  -10.2135   -0.5570 H         1 <0>         0.0688
     48 H16        -2.8019  -10.7581   -0.7400 H         1 <0>         0.4058
     49 H17         4.8882    0.4096   -0.0538 H         1 <0>         0.1274
     50 H18         6.9945    1.6429   -0.0691 H         1 <0>         0.1260
     51 H19         8.1625    4.4222   -0.0586 H         1 <0>         0.1479
     52 H20         6.9864    6.7464   -0.0229 H         1 <0>         0.1720
     53 H21         2.6882    4.0874   -0.0035 H         1 <0>         0.1249
@<TRIPOS>BOND
     1    1    6 ar
     2    1    2 ar
     3    1   34 1
     4    2    3 ar
     5    2   35 1
     6    3    4 ar
     7    3   24 1
     8    4    5 ar
     9    4   36 1
    10    5    6 ar
    11    5    7 1
    12    6   37 1
    13    7   11 1
    14    7    8 1
    15    8    9 2
    16    8   38 1
    17    9   10 1
    18    9   13 1
    19   10   11 2
    20   10   12 1
    21   12   39 1
    22   12   40 1
    23   13   18 ar
    24   13   14 ar
    25   14   15 ar
    26   14   41 1
    27   15   16 ar
    28   15   42 1
    29   16   22 1
    30   16   17 ar
    31   17   18 ar
    32   17   19 1
    33   18   43 1
    34   19   20 1
    35   19   44 1
    36   19   45 1
    37   20   21 1
    38   20   46 1
    39   20   47 1
    40   21   22 am
    41   21   48 1
    42   22   23 2
    43   24   33 ar
    44   24   25 ar
    45   25   26 ar
    46   25   49 1
    47   26   27 ar
    48   26   50 1
    49   27   32 ar
    50   27   28 1
    51   28   29 2
    52   28   51 1
    53   29   30 1
    54   29   52 1
    55   30   31 1
    56   30   32 1
    57   32   33 ar
    58   33   53 1
@<TRIPOS>MOLECULE
CHEMBL597640
   52    57     0     0     0
SMALL
USER_CHARGES

@<TRIPOS>ATOM
      1 C1         -0.0167    1.3776    0.0096 C.ar      1 <0>        -0.0850
      2 C2          1.1672    2.0883    0.0021 C.ar      1 <0>        -0.1238
      3 C3          2.3861    1.4124   -0.0136 C.ar      1 <0>        -0.0140
      4 C4          2.4058    0.0198   -0.0212 C.ar      1 <0>        -0.1097
      5 C5          1.2127   -0.6863   -0.0131 C.ar      1 <0>         0.1719
      6 C6          0.0021   -0.0041    0.0020 C.ar      1 <0>        -0.1446
      7 N1          1.2275   -2.0870   -0.0212 N.pl3     1 <0>        -0.3133
      8 C7          0.1416   -2.8881   -0.0202 C.2       1 <0>         0.1018
      9 C8          0.5800   -4.1816   -0.0307 C.2       1 <0>        -0.2347
     10 C9          1.9955   -4.1499   -0.0383 C.2       1 <0>         0.3690
     11 N2          2.3713   -2.8940   -0.0378 N.2       1 <0>        -0.3454
     12 N3          2.8420   -5.2607   -0.0499 N.pl3     1 <0>        -0.8362
     13 C10        -0.2695   -5.3951   -0.0328 C.ar      1 <0>         0.0368
     14 C11        -1.3039   -5.5225    0.8959 C.ar      1 <0>        -0.1248
     15 C12        -2.0916   -6.6397    0.8989 C.ar      1 <0>        -0.0471
     16 C13        -1.8603   -7.6548   -0.0290 C.ar      1 <0>        -0.1455
     17 C14        -0.8250   -7.5325   -0.9628 C.ar      1 <0>        -0.0423
     18 C15        -0.0372   -6.4065   -0.9678 C.ar      1 <0>        -0.1241
     19 C16        -0.5967   -8.6405   -1.9564 C.3       1 <0>        -0.1038
     20 C17        -0.9211   -9.9881   -1.3158 C.3       1 <0>         0.1134
     21 N4         -2.2415   -9.9680   -0.6924 N.am      1 <0>        -0.7276
     22 C18        -2.6941   -8.8734   -0.0491 C.2       1 <0>         0.5652
     23 O1         -3.7750   -8.8892    0.5075 O.2       1 <0>        -0.5353
     24 C19         3.6589    2.1742   -0.0226 C.ar      1 <0>        -0.0302
     25 C20         4.8797    1.4922   -0.0442 C.ar      1 <0>        -0.1132
     26 C21         6.0573    2.1793   -0.0532 C.ar      1 <0>        -0.0595
     27 C22         6.0522    3.5781   -0.0403 C.ar      1 <0>         0.0508
     28 C23         4.8280    4.2693   -0.0186 C.ar      1 <0>         0.0457
     29 C24         3.6348    3.5640   -0.0154 C.ar      1 <0>        -0.0967
     30 N5          5.1490    5.6127   -0.0100 N.pl3     1 <0>        -0.6024
     31 H1          4.5230    6.3534    0.0051 H         1 <0>         0.4253
     32 C25         6.5062    5.7039   -0.0259 C.2       1 <0>         0.2663
     33 N6          7.0345    4.5149   -0.0437 N.2       1 <0>        -0.4962
     34 H2         -0.9600    1.9031    0.0259 H         1 <0>         0.1363
     35 H3          1.1487    3.1681    0.0081 H         1 <0>         0.1303
     36 H4          3.3477   -0.5085   -0.0337 H         1 <0>         0.1440
     37 H5         -0.9266   -0.5553    0.0082 H         1 <0>         0.1314
     38 H6         -0.8888   -2.5647   -0.0125 H         1 <0>         0.1821
     39 H7          2.4678   -6.1556   -0.0534 H         1 <0>         0.4115
     40 H8          3.8041   -5.1372   -0.0544 H         1 <0>         0.4072
     41 H9         -1.4826   -4.7358    1.6139 H         1 <0>         0.1303
     42 H10        -2.8911   -6.7363    1.6186 H         1 <0>         0.1367
     43 H11         0.7604   -6.3058   -1.6889 H         1 <0>         0.1300
     44 H12        -1.2396   -8.4876   -2.8232 H         1 <0>         0.0895
     45 H13         0.4458   -8.6324   -2.2745 H         1 <0>         0.0984
     46 H14        -0.8989  -10.7631   -2.0819 H         1 <0>         0.0909
     47 H15        -0.1710  -10.2138   -0.5578 H         1 <0>         0.0688
     48 H16        -2.8034  -10.7572   -0.7422 H         1 <0>         0.4058
     49 H17         4.8898    0.4123   -0.0534 H         1 <0>         0.1349
     50 H18         6.9948    1.6433   -0.0698 H         1 <0>         0.1339
     51 H19         2.6922    4.0910   -0.0033 H         1 <0>         0.1286
     52 H20         7.0640    6.6287   -0.0249 H         1 <0>         0.2186
@<TRIPOS>BOND
     1    1    6 ar
     2    1    2 ar
     3    1   34 1
     4    2    3 ar
     5    2   35 1
     6    3    4 ar
     7    3   24 1
     8    4    5 ar
     9    4   36 1
    10    5    6 ar
    11    5    7 1
    12    6   37 1
    13    7   11 1
    14    7    8 1
    15    8    9 2
    16    8   38 1
    17    9   10 1
    18    9   13 1
    19   10   11 2
    20   10   12 1
    21   12   39 1
    22   12   40 1
    23   13   18 ar
    24   13   14 ar
    25   14   15 ar
    26   14   41 1
    27   15   16 ar
    28   15   42 1
    29   16   22 1
    30   16   17 ar
    31   17   18 ar
    32   17   19 1
    33   18   43 1
    34   19   20 1
    35   19   44 1
    36   19   45 1
    37   20   21 1
    38   20   46 1
    39   20   47 1
    40   21   22 am
    41   21   48 1
    42   22   23 2
    43   24   29 ar
    44   24   25 ar
    45   25   26 ar
    46   25   49 1
    47   26   27 ar
    48   26   50 1
    49   27   33 1
    50   27   28 ar
    51   28   29 ar
    52   28   30 1
    53   29   51 1
    54   30   31 1
    55   30   32 1
    56   32   33 2
    57   32   52 1
@<TRIPOS>MOLECULE
CHEMBL541448
   46    49     0     0     0
SMALL
USER_CHARGES

@<TRIPOS>ATOM
      1 C1         -0.0187    1.5258    0.0104 C.3       1 <0>        -0.1674
      2 C2          0.0021   -0.0041    0.0020 C.3       1 <0>         0.1094
      3 H1          0.5145   -0.3411   -0.8990 H         1 <0>         0.1042
      4 C3         -1.4230   -0.5082   -0.0331 C.3       1 <0>         0.1149
      5 N1         -2.2624    0.1242    0.9554 N.pl3     1 <0>        -0.7197
      6 C4         -2.1514   -0.1184    2.3272 C.2       1 <0>         0.2460
      7 C5         -3.3264   -0.0182    3.2046 C.ar      1 <0>        -0.0853
      8 C6         -4.6534    0.3078    2.8283 C.ar      1 <0>        -0.1013
      9 C7         -5.6507    0.3636    3.7705 C.ar      1 <0>         0.1227
     10 C8         -5.3905    0.1030    5.1145 C.ar      1 <0>        -0.1621
     11 C9         -4.1083   -0.2174    5.5089 C.ar      1 <0>        -0.0407
     12 C10        -3.0982   -0.2760    4.5681 C.ar      1 <0>        -0.1300
     13 S1         -1.3655   -0.6411    4.6513 S.3       1 <0>         0.1327
     14 C11        -0.9545   -0.4574    2.9267 C.2       1 <0>        -0.2777
     15 C12         0.3185   -0.6372    2.3823 C.2       1 <0>         0.6021
     16 O1          1.1669   -1.0141    3.1704 O.2       1 <0>        -0.5676
     17 N2          0.7401   -0.4631    1.1531 N.am      1 <0>        -0.6968
     18 O2         -6.9162    0.6787    3.3848 O.3       1 <0>        -0.3071
     19 C13        -7.9140    0.7222    4.4067 C.3       1 <0>         0.1017
     20 C14        -9.2431    1.0849    3.7959 C.ar      1 <0>        -0.0594
     21 C15        -9.6156    2.4125    3.6902 C.ar      1 <0>        -0.1321
     22 C16       -10.8341    2.7484    3.1304 C.ar      1 <0>        -0.0816
     23 C17       -11.6833    1.7580    2.6755 C.ar      1 <0>        -0.1972
     24 C18       -11.3120    0.4256    2.7804 C.ar      1 <0>         0.1251
     25 C19       -10.0858    0.0913    3.3371 C.ar      1 <0>        -0.1272
     26 O3        -12.1454   -0.5504    2.3336 O.3       1 <0>        -0.3166
     27 C20       -13.3889   -0.1325    1.7669 C.3       1 <0>         0.0262
     28 H2          1.0039    1.9031    0.0027 H         1 <0>         0.0620
     29 H3         -0.5459    1.8868   -0.8726 H         1 <0>         0.0675
     30 H4         -0.5289    1.8773    0.9072 H         1 <0>         0.0614
     31 H5         -1.8393   -0.3176   -1.0223 H         1 <0>         0.1052
     32 H6         -1.4201   -1.5838    0.1438 H         1 <0>         0.0721
     33 H7         -2.9385    0.7502    0.6522 H         1 <0>         0.4034
     34 H8         -4.8817    0.5143    1.7931 H         1 <0>         0.1326
     35 H9         -6.1872    0.1519    5.8421 H         1 <0>         0.1435
     36 H10        -3.8950   -0.4211    6.5478 H         1 <0>         0.1420
     37 H11         1.6750   -0.6702    0.9985 H         1 <0>         0.4047
     38 H12        -7.9881   -0.2549    4.8841 H         1 <0>         0.0760
     39 H13        -7.6398    1.4702    5.1506 H         1 <0>         0.0773
     40 H14        -8.9535    3.1881    4.0458 H         1 <0>         0.1273
     41 H15       -11.1227    3.7860    3.0489 H         1 <0>         0.1297
     42 H16       -12.6354    2.0209    2.2388 H         1 <0>         0.1309
     43 H17        -9.7924   -0.9451    3.4156 H         1 <0>         0.1333
     44 H18       -13.9597    0.4217    2.5119 H         1 <0>         0.0568
     45 H19       -13.1986    0.5073    0.9051 H         1 <0>         0.0567
     46 H20       -13.9567   -1.0077    1.4513 H         1 <0>         0.1025
@<TRIPOS>BOND
     1    1    2 1
     2    1   28 1
     3    1   29 1
     4    1   30 1
     5    2    3 1
     6    2   17 1
     7    2    4 1
     8    4    5 1
     9    4   31 1
    10    4   32 1
    11    5    6 1
    12    5   33 1
    13    6   14 2
    14    6    7 1
    15    7   12 ar
    16    7    8 ar
    17    8    9 ar
    18    8   34 1
    19    9   10 ar
    20    9   18 1
    21   10   11 ar
    22   10   35 1
    23   11   12 ar
    24   11   36 1
    25   12   13 1
    26   13   14 1
    27   14   15 1
    28   15   16 2
    29   15   17 am
    30   17   37 1
    31   18   19 1
    32   19   20 1
    33   19   38 1
    34   19   39 1
    35   20   25 ar
    36   20   21 ar
    37   21   22 ar
    38   21   40 1
    39   22   23 ar
    40   22   41 1
    41   23   24 ar
    42   23   42 1
    43   24   25 ar
    44   24   26 1
    45   25   43 1
    46   26   27 1
    47   27   44 1
    48   27   45 1
    49   27   46 1
@<TRIPOS>MOLECULE
CHEMBL541448__1
   47    50     0     0     0
SMALL
USER_CHARGES

@<TRIPOS>ATOM
      1 C1         -0.0187    1.5258    0.0104 C.3       1 <0>        -0.1659
      2 C2          0.0021   -0.0041    0.0020 C.3       1 <0>         0.1156
      3 H1          0.5148   -0.3394   -0.8995 H         1 <0>         0.1071
      4 C3         -1.4372   -0.5110   -0.0385 C.3       1 <0>        -0.0265
      5 N1         -1.4988   -1.9385    0.2746 N.4       1 <0>        -0.4265
      6 C4         -0.4876   -2.6667   -0.3764 C.2       1 <0>        -0.0345
      7 C5         -0.7636   -3.5530   -1.4531 C.ar      1 <0>        -0.0536
      8 C6         -2.0335   -3.8516   -2.0117 C.ar      1 <0>        -0.1451
      9 C7         -2.1459   -4.7335   -3.0567 C.ar      1 <0>         0.1679
     10 C8         -1.0259   -5.3611   -3.6005 C.ar      1 <0>        -0.1545
     11 C9          0.2226   -5.0927   -3.0792 C.ar      1 <0>        -0.0156
     12 C10         0.3475   -4.2089   -2.0286 C.ar      1 <0>        -0.1570
     13 S1          1.7222   -3.6001   -1.0801 S.3       1 <0>         0.2958
     14 C11         0.8111   -2.5504    0.0101 C.2       1 <0>        -0.1703
     15 C12         1.2823   -1.7171    1.1231 C.2       1 <0>         0.5858
     16 O1          2.0828   -2.1156    1.9479 O.2       1 <0>        -0.4543
     17 N2          0.7510   -0.4651    1.1614 N.am      1 <0>        -0.7221
     18 O2         -3.3752   -5.0014   -3.5725 O.3       1 <0>        -0.3002
     19 C13        -3.4351   -5.9270   -4.6596 C.3       1 <0>         0.1004
     20 C14        -4.8674   -6.0976   -5.0959 C.ar      1 <0>        -0.0688
     21 C15        -5.6546   -7.0754   -4.5157 C.ar      1 <0>        -0.1320
     22 C16        -6.9689   -7.2344   -4.9137 C.ar      1 <0>        -0.0791
     23 C17        -7.4991   -6.4166   -5.8929 C.ar      1 <0>        -0.1920
     24 C18        -6.7117   -5.4350   -6.4765 C.ar      1 <0>         0.1280
     25 C19        -5.3946   -5.2734   -6.0709 C.ar      1 <0>        -0.1278
     26 O3         -7.2309   -4.6293   -7.4399 O.3       1 <0>        -0.3160
     27 C20        -8.5954   -4.8488   -7.8032 C.3       1 <0>         0.0247
     28 H2          1.0039    1.9031    0.0027 H         1 <0>         0.0882
     29 H3         -0.5459    1.8868   -0.8726 H         1 <0>         0.0906
     30 H4         -0.5289    1.8773    0.9072 H         1 <0>         0.0785
     31 H5         -2.0318    0.0411    0.6893 H         1 <0>         0.1483
     32 H6         -1.8474   -0.3448   -1.0346 H         1 <0>         0.1500
     33 H7         -1.4004   -2.0601    1.2714 H         1 <0>         0.4320
     34 H8         -2.9189   -3.3804   -1.6112 H         1 <0>         0.1367
     35 H9         -1.1352   -6.0523   -4.4232 H         1 <0>         0.1575
     36 H10         1.0978   -5.5724   -3.4920 H         1 <0>         0.1553
     37 H11         0.8696    0.1047    1.9374 H         1 <0>         0.4271
     38 H12        -2.8442   -5.5472   -5.4931 H         1 <0>         0.0822
     39 H13        -3.0356   -6.8894   -4.3398 H         1 <0>         0.0835
     40 H14        -5.2417   -7.7161   -3.7506 H         1 <0>         0.1271
     41 H15        -7.5816   -7.9988   -4.4590 H         1 <0>         0.1323
     42 H16        -8.5258   -6.5416   -6.2040 H         1 <0>         0.1340
     43 H17        -4.7808   -4.5068   -6.5204 H         1 <0>         0.1330
     44 H18        -8.7127   -5.8658   -8.1774 H         1 <0>         0.0592
     45 H19        -9.2313   -4.7077   -6.9292 H         1 <0>         0.0581
     46 H20        -8.8831   -4.1404   -8.5800 H         1 <0>         0.1053
     47 H21        -2.3973   -2.2982   -0.0109 H         1 <0>         0.4375
@<TRIPOS>BOND
     1    1    2 1
     2    1   28 1
     3    1   29 1
     4    1   30 1
     5    2    3 1
     6    2   17 1
     7    2    4 1
     8    4    5 1
     9    4   31 1
    10    4   32 1
    11    5    6 1
    12    5   33 1
    13    5   47 1
    14    6   14 2
    15    6    7 1
    16    7   12 ar
    17    7    8 ar
    18    8    9 ar
    19    8   34 1
    20    9   10 ar
    21    9   18 1
    22   10   11 ar
    23   10   35 1
    24   11   12 ar
    25   11   36 1
    26   12   13 1
    27   13   14 1
    28   14   15 1
    29   15   16 2
    30   15   17 am
    31   17   37 1
    32   18   19 1
    33   19   20 1
    34   19   38 1
    35   19   39 1
    36   20   25 ar
    37   20   21 ar
    38   21   22 ar
    39   21   40 1
    40   22   23 ar
    41   22   41 1
    42   23   24 ar
    43   23   42 1
    44   24   25 ar
    45   24   26 1
    46   25   43 1
    47   26   27 1
    48   27   44 1
    49   27   45 1
    50   27   46 1
@<TRIPOS>MOLECULE
CHEMBL590109
   51    56     0     0     0
SMALL
USER_CHARGES

@<TRIPOS>ATOM
      1 C1         -0.0164    1.3550    0.0095 C.ar      1 <0>        -0.1194
      2 C2          1.1574    2.0971    0.0023 C.ar      1 <0>        -0.0891
      3 C3          2.3749    1.4455   -0.0129 C.ar      1 <0>        -0.0787
      4 C4          2.4083    0.0676   -0.0206 C.ar      1 <0>        -0.1093
      5 C5          1.2295   -0.7113   -0.0135 C.ar      1 <0>        -0.0925
      6 C6          0.0021   -0.0041    0.0020 C.ar      1 <0>        -0.0738
      7 C7          1.4485   -2.1470   -0.0234 C.2       1 <0>        -0.1182
      8 C8          2.7191   -2.6185   -0.0380 C.2       1 <0>        -0.0938
      9 S1          3.7106   -1.1371   -0.0395 S.3       1 <0>         0.0292
     10 C9          3.1737   -4.0242   -0.0504 C.ar      1 <0>        -0.0370
     11 C10         2.6581   -4.9311    0.8653 C.ar      1 <0>        -0.0288
     12 C11         3.0842   -6.2618    0.8585 C.ar      1 <0>        -0.0628
     13 C12         4.0273   -6.6917   -0.0635 C.ar      1 <0>         0.0088
     14 C13         4.5552   -5.7888   -0.9926 C.ar      1 <0>        -0.1764
     15 C14         4.1256   -4.4495   -0.9933 C.ar      1 <0>         0.1546
     16 N1          4.8021   -3.8175   -2.0018 N.pl3     1 <0>        -0.5015
     17 H1          4.7127   -2.8811   -2.2386 H         1 <0>         0.4426
     18 N2          5.6428   -4.7377   -2.6360 N.2       1 <0>        -0.2389
     19 C15         5.5347   -5.9056   -2.0694 C.2       1 <0>         0.0835
     20 C16         2.5252   -7.2202    1.8433 C.2       1 <0>        -0.1020
     21 C17         2.4286   -7.0381    3.1855 C.2       1 <0>         0.0944
     22 N3          1.8617   -8.1356    3.7607 N.pl3     1 <0>        -0.4728
     23 C18         1.5690   -9.0763    2.7969 C.ar      1 <0>        -0.0809
     24 C19         1.9647   -8.5439    1.5538 C.ar      1 <0>         0.2073
     25 N4          1.7811   -9.2643    0.4495 N.ar      1 <0>        -0.5334
     26 C20         1.2301  -10.4643    0.5220 C.ar      1 <0>         0.5639
     27 N5          0.8430  -10.9926    1.6764 N.ar      1 <0>        -0.5430
     28 C21         1.0001  -10.3437    2.8184 C.ar      1 <0>         0.2059
     29 N6          1.0507  -11.1927   -0.6439 N.pl3     1 <0>        -0.8177
     30 C22         1.6019   -8.2929    5.1939 C.3       1 <0>         0.0913
     31 C23         2.7659   -9.0436    5.8439 C.3       1 <0>        -0.0341
     32 N7          2.5053   -9.2013    7.2810 N.4       1 <0>        -0.6328
     33 H2         -0.9657    1.8696    0.0259 H         1 <0>         0.1309
     34 H3          1.1184    3.1764    0.0081 H         1 <0>         0.1379
     35 H4          3.2946    2.0117   -0.0190 H         1 <0>         0.1336
     36 H5         -0.9293   -0.5508    0.0084 H         1 <0>         0.1269
     37 H6          0.6111   -2.8290   -0.0187 H         1 <0>         0.1395
     38 H7          1.9237   -4.6061    1.5874 H         1 <0>         0.1339
     39 H8          4.3536   -7.7212   -0.0639 H         1 <0>         0.1329
     40 H9          6.0659   -6.8023   -2.3525 H         1 <0>         0.2025
     41 H10         2.7529   -6.1558    3.7173 H         1 <0>         0.1874
     42 H11         0.6792  -10.7860    3.7500 H         1 <0>         0.1617
     43 H12         1.3280  -10.8207   -1.4957 H         1 <0>         0.4190
     44 H13         0.6480  -12.0744   -0.6077 H         1 <0>         0.4179
     45 H14         1.5007   -7.3103    5.6548 H         1 <0>         0.1171
     46 H15         0.6805   -8.8576    5.3363 H         1 <0>         0.1102
     47 H16         2.8670  -10.0262    5.3830 H         1 <0>         0.1399
     48 H17         3.6872   -8.4789    5.7015 H         1 <0>         0.1430
     49 H18         2.4117   -8.2917    7.7076 H         1 <0>         0.4382
     50 H19         1.6524   -9.7240    7.4128 H         1 <0>         0.4380
     51 H20         3.2729   -9.6964    7.7096 H         1 <0>         0.4450
@<TRIPOS>BOND
     1    1    6 ar
     2    1    2 ar
     3    1   33 1
     4    2    3 ar
     5    2   34 1
     6    3    4 ar
     7    3   35 1
     8    4    9 1
     9    4    5 ar
    10    5    6 ar
    11    5    7 1
    12    6   36 1
    13    7    8 2
    14    7   37 1
    15    8    9 1
    16    8   10 1
    17   10   15 ar
    18   10   11 ar
    19   11   12 ar
    20   11   38 1
    21   12   13 ar
    22   12   20 1
    23   13   14 ar
    24   13   39 1
    25   14   19 1
    26   14   15 ar
    27   15   16 1
    28   16   17 1
    29   16   18 1
    30   18   19 2
    31   19   40 1
    32   20   24 1
    33   20   21 2
    34   21   22 1
    35   21   41 1
    36   22   23 1
    37   22   30 1
    38   23   28 ar
    39   23   24 ar
    40   24   25 ar
    41   25   26 ar
    42   26   27 ar
    43   26   29 1
    44   27   28 ar
    45   28   42 1
    46   29   43 1
    47   29   44 1
    48   30   31 1
    49   30   45 1
    50   30   46 1
    51   31   32 1
    52   31   47 1
    53   31   48 1
    54   32   49 1
    55   32   50 1
    56   32   51 1
@<TRIPOS>MOLECULE
CHEMBL590834
   43    47     0     0     0
SMALL
USER_CHARGES

@<TRIPOS>ATOM
      1 C1          0.6015    1.4016   -0.7028 C.ar      1 <0>        -0.1113
      2 C2          1.7616    2.1342   -0.4581 C.ar      1 <0>        -0.1166
      3 C3          2.9502    1.5097   -0.2364 C.ar      1 <0>        -0.1016
      4 C4          3.0121    0.1048   -0.2532 C.ar      1 <0>        -0.0530
      5 C5          4.2212   -0.5710   -0.0280 C.ar      1 <0>        -0.0685
      6 C6          4.2423   -1.9537   -0.0521 C.ar      1 <0>        -0.0160
      7 C7          3.0663   -2.6816   -0.3000 C.ar      1 <0>        -0.0947
      8 C8          1.8871   -2.0458   -0.5206 C.ar      1 <0>        -0.1028
      9 C9          1.8317   -0.6403   -0.5018 C.ar      1 <0>        -0.0443
     10 C10         0.6235    0.0407   -0.7267 C.ar      1 <0>        -0.1085
     11 C11         5.5156   -2.6733    0.1851 C.2       1 <0>         0.1366
     12 C12         5.6695   -3.9578    0.8764 C.ar      1 <0>        -0.1425
     13 C13         4.7756   -4.8452    1.4809 C.ar      1 <0>        -0.0764
     14 C14         5.2550   -6.0033    2.0615 C.ar      1 <0>         0.1287
     15 C15         6.6214   -6.2852    2.0452 C.ar      1 <0>        -0.0545
     16 C16         7.5037   -5.4255    1.4575 C.ar      1 <0>        -0.1234
     17 C17         7.0450   -4.2510    0.8646 C.ar      1 <0>         0.1184
     18 N1          7.6679   -3.2153    0.2127 N.pl3     1 <0>        -0.5042
     19 H1          8.6221   -3.1454    0.0528 H         1 <0>         0.4425
     20 N2          6.7091   -2.2803   -0.1899 N.2       1 <0>        -0.2341
     21 N3          4.3660   -6.8979    2.6694 N.pl3     1 <0>        -0.6498
     22 C18         4.5855   -8.2634    2.5770 C.ar      1 <0>         0.4691
     23 C19         3.7783   -9.1602    3.2809 C.ar      1 <0>        -0.3377
     24 C20         4.0332  -10.5118    3.1584 C.ar      1 <0>         0.2187
     25 N4          5.0286  -10.9162    2.3826 N.ar      1 <0>        -0.6034
     26 C21         5.7784  -10.0432    1.7263 C.ar      1 <0>         0.6007
     27 N5          5.5636   -8.7390    1.8129 N.ar      1 <0>        -0.6142
     28 N6          6.8085  -10.5057    0.9262 N.pl3     1 <0>        -0.8206
     29 H2         -0.3300    1.9214   -0.8716 H         1 <0>         0.1245
     30 H3          1.7166    3.2132   -0.4446 H         1 <0>         0.1248
     31 H4          3.8415    2.0901   -0.0488 H         1 <0>         0.1287
     32 H5          5.1279   -0.0159    0.1623 H         1 <0>         0.1335
     33 H6          3.1009   -3.7609   -0.3156 H         1 <0>         0.1280
     34 H7          0.9918   -2.6191   -0.7105 H         1 <0>         0.1326
     35 H8         -0.2839   -0.5131   -0.9173 H         1 <0>         0.1287
     36 H9          3.7179   -4.6273    1.4944 H         1 <0>         0.1316
     37 H10         6.9850   -7.1933    2.5029 H         1 <0>         0.1388
     38 H11         8.5588   -5.6559    1.4520 H         1 <0>         0.1305
     39 H12         3.5966   -6.5622    3.1553 H         1 <0>         0.4224
     40 H13         2.9733   -8.8045    3.9069 H         1 <0>         0.1418
     41 H14         3.4281  -11.2316    3.6895 H         1 <0>         0.1683
     42 H15         6.9741  -11.4586    0.8512 H         1 <0>         0.4158
     43 H16         7.3650   -9.8771    0.4403 H         1 <0>         0.4133
@<TRIPOS>BOND
     1    1   10 ar
     2    1    2 ar
     3    1   29 1
     4    2    3 ar
     5    2   30 1
     6    3    4 ar
     7    3   31 1
     8    4    9 ar
     9    4    5 ar
    10    5    6 ar
    11    5   32 1
    12    6    7 ar
    13    6   11 1
    14    7    8 ar
    15    7   33 1
    16    8    9 ar
    17    8   34 1
    18    9   10 ar
    19   10   35 1
    20   11   20 2
    21   11   12 1
    22   12   17 ar
    23   12   13 ar
    24   13   14 ar
    25   13   36 1
    26   14   15 ar
    27   14   21 1
    28   15   16 ar
    29   15   37 1
    30   16   17 ar
    31   16   38 1
    32   17   18 1
    33   18   19 1
    34   18   20 1
    35   21   22 1
    36   21   39 1
    37   22   27 ar
    38   22   23 ar
    39   23   24 ar
    40   23   40 1
    41   24   25 ar
    42   24   41 1
    43   25   26 ar
    44   26   27 ar
    45   26   28 1
    46   28   42 1
    47   28   43 1
@<TRIPOS>MOLECULE
CHEMBL590834__1
   44    48     0     0     0
SMALL
USER_CHARGES

@<TRIPOS>ATOM
      1 C1         -1.0703    0.4772   -0.2679 C.ar      1 <0>        -0.1018
      2 C2          0.0267    1.3115   -0.4746 C.ar      1 <0>        -0.1088
      3 C3          1.2872    0.8043   -0.5513 C.ar      1 <0>        -0.1037
      4 C4          1.4891   -0.5817   -0.4201 C.ar      1 <0>        -0.0525
      5 C5          2.7750   -1.1369   -0.4937 C.ar      1 <0>        -0.0744
      6 C6          2.9340   -2.5078   -0.3592 C.ar      1 <0>        -0.0478
      7 C7          1.8171   -3.3390   -0.1506 C.ar      1 <0>        -0.0932
      8 C8          0.5666   -2.8180   -0.0769 C.ar      1 <0>        -0.0980
      9 C9          0.3725   -1.4303   -0.2094 C.ar      1 <0>        -0.0407
     10 C10        -0.9129   -0.8689   -0.1365 C.ar      1 <0>        -0.1120
     11 C11         4.2826   -3.0993   -0.4359 C.2       1 <0>         0.1675
     12 C12         4.8094   -4.0683    0.4213 C.ar      1 <0>        -0.1831
     13 C13         4.3254   -4.7653    1.5427 C.ar      1 <0>        -0.0147
     14 C14         5.1282   -5.6750    2.1671 C.ar      1 <0>         0.0680
     15 C15         6.4301   -5.9333    1.7172 C.ar      1 <0>        -0.0894
     16 C16         6.9524   -5.2933    0.6421 C.ar      1 <0>        -0.0672
     17 C17         6.1743   -4.3399   -0.0503 C.ar      1 <0>         0.1028
     18 N1          6.3810   -3.5659   -1.1020 N.2       1 <0>        -0.2778
     19 H1          5.1332   -2.1660   -2.0726 H         1 <0>         0.4490
     20 N2          5.2322   -2.8073   -1.3516 N.pl3     1 <0>        -0.4102
     21 N3          4.6408   -6.3651    3.2822 N.pl3     1 <0>        -0.5854
     22 C18         3.7596   -5.7422    4.1520 C.ar      1 <0>         0.5079
     23 C19         3.1724   -6.4573    5.1985 C.ar      1 <0>        -0.2624
     24 C20         2.3004   -5.7958    6.0405 C.ar      1 <0>         0.2117
     25 N4          2.0476   -4.5115    5.8331 N.ar      1 <0>        -0.5758
     26 C21         2.6185   -3.8581    4.8321 C.ar      1 <0>         0.6595
     27 N5          3.4650   -4.4543    4.0059 N.ar      1 <0>        -0.5654
     28 N6          2.3281   -2.5174    4.6487 N.pl3     1 <0>        -0.7927
     29 H2         -2.0599    0.9053   -0.2067 H         1 <0>         0.1293
     30 H3         -0.1258    2.3759   -0.5756 H         1 <0>         0.1299
     31 H4          2.1282    1.4624   -0.7125 H         1 <0>         0.1315
     32 H5          3.6339   -0.5021   -0.6540 H         1 <0>         0.1318
     33 H6          1.9575   -4.4050   -0.0482 H         1 <0>         0.1268
     34 H7         -0.2804   -3.4685    0.0836 H         1 <0>         0.1334
     35 H8         -1.7730   -1.5023    0.0235 H         1 <0>         0.1309
     36 H9          3.3255   -4.5816    1.9072 H         1 <0>         0.1366
     37 H10         7.0330   -6.6607    2.2405 H         1 <0>         0.1380
     38 H11         7.9590   -5.5115    0.3170 H         1 <0>         0.1443
     39 H12         4.9196   -7.2795    3.4466 H         1 <0>         0.4381
     40 H13         3.3951   -7.5038    5.3456 H         1 <0>         0.1871
     41 H14         1.8291   -6.3195    6.8590 H         1 <0>         0.2162
     42 H15         1.7133   -2.0678    5.2493 H         1 <0>         0.4296
     43 H16         2.7394   -2.0273    3.9196 H         1 <0>         0.4437
     44 H17         1.4356   -4.0434    6.4224 H         1 <0>         0.4432
@<TRIPOS>BOND
     1    1   10 ar
     2    1    2 ar
     3    1   29 1
     4    2    3 ar
     5    2   30 1
     6    3    4 ar
     7    3   31 1
     8    4    9 ar
     9    4    5 ar
    10    5    6 ar
    11    5   32 1
    12    6    7 ar
    13    6   11 1
    14    7    8 ar
    15    7   33 1
    16    8    9 ar
    17    8   34 1
    18    9   10 ar
    19   10   35 1
    20   11   12 2
    21   11   20 1
    22   12   13 ar
    23   12   17 ar
    24   13   14 ar
    25   13   36 1
    26   14   15 ar
    27   14   21 1
    28   15   16 ar
    29   15   37 1
    30   16   17 ar
    31   16   38 1
    32   17   18 2
    33   18   20 1
    34   19   20 1
    35   21   22 1
    36   21   39 1
    37   22   27 ar
    38   22   23 ar
    39   23   24 ar
    40   23   40 1
    41   24   25 ar
    42   24   41 1
    43   25   26 ar
    44   25   44 1
    45   26   27 ar
    46   26   28 1
    47   28   42 1
    48   28   43 1
@<TRIPOS>MOLECULE
CHEMBL590834__2
   44    48     0     0     0
SMALL
USER_CHARGES

@<TRIPOS>ATOM
      1 C1          0.6015    1.4016   -0.7028 C.ar      1 <0>        -0.1046
      2 C2          1.7616    2.1342   -0.4581 C.ar      1 <0>        -0.1122
      3 C3          2.9502    1.5097   -0.2364 C.ar      1 <0>        -0.1013
      4 C4          3.0121    0.1048   -0.2532 C.ar      1 <0>        -0.0542
      5 C5          4.2212   -0.5710   -0.0280 C.ar      1 <0>        -0.0588
      6 C6          4.2423   -1.9537   -0.0521 C.ar      1 <0>        -0.0311
      7 C7          3.0663   -2.6816   -0.3000 C.ar      1 <0>        -0.0992
      8 C8          1.8871   -2.0458   -0.5206 C.ar      1 <0>        -0.0996
      9 C9          1.8317   -0.6403   -0.5018 C.ar      1 <0>        -0.0417
     10 C10         0.6235    0.0407   -0.7267 C.ar      1 <0>        -0.1110
     11 C11         5.5156   -2.6733    0.1851 C.2       1 <0>         0.1504
     12 C12         5.6695   -3.9578    0.8764 C.ar      1 <0>        -0.1488
     13 C13         4.7756   -4.8452    1.4809 C.ar      1 <0>        -0.0368
     14 C14         5.2550   -6.0033    2.0615 C.ar      1 <0>         0.0688
     15 C15         6.6214   -6.2852    2.0452 C.ar      1 <0>        -0.0533
     16 C16         7.5037   -5.4255    1.4575 C.ar      1 <0>        -0.1194
     17 C17         7.0450   -4.2510    0.8646 C.ar      1 <0>         0.1387
     18 N1          7.6679   -3.2153    0.2127 N.pl3     1 <0>        -0.4976
     19 H1          8.6221   -3.1454    0.0528 H         1 <0>         0.4477
     20 N2          6.7091   -2.2803   -0.1899 N.2       1 <0>        -0.2252
     21 N3          4.3660   -6.8979    2.6694 N.pl3     1 <0>        -0.5894
     22 C18         4.5855   -8.2634    2.5770 C.ar      1 <0>         0.5139
     23 C19         3.7783   -9.1602    3.2809 C.ar      1 <0>        -0.2629
     24 C20         4.0332  -10.5118    3.1584 C.ar      1 <0>         0.2140
     25 N4          5.0286  -10.9162    2.3826 N.ar      1 <0>        -0.5748
     26 C21         5.7784  -10.0432    1.7263 C.ar      1 <0>         0.6599
     27 N5          5.5636   -8.7390    1.8129 N.ar      1 <0>        -0.5664
     28 N6          6.8085  -10.5057    0.9262 N.pl3     1 <0>        -0.7925
     29 H2         -0.3300    1.9214   -0.8716 H         1 <0>         0.1277
     30 H3          1.7166    3.2132   -0.4446 H         1 <0>         0.1281
     31 H4          3.8415    2.0901   -0.0488 H         1 <0>         0.1309
     32 H5          5.1279   -0.0159    0.1623 H         1 <0>         0.1349
     33 H6          3.1009   -3.7609   -0.3156 H         1 <0>         0.1239
     34 H7          0.9918   -2.6191   -0.7105 H         1 <0>         0.1333
     35 H8         -0.2839   -0.5131   -0.9173 H         1 <0>         0.1304
     36 H9          3.7179   -4.6273    1.4944 H         1 <0>         0.1400
     37 H10         6.9850   -7.1933    2.5029 H         1 <0>         0.1371
     38 H11         8.5588   -5.6559    1.4520 H         1 <0>         0.1386
     39 H12         3.5966   -6.5622    3.1553 H         1 <0>         0.4385
     40 H13         2.9733   -8.8045    3.9069 H         1 <0>         0.1878
     41 H14         3.4281  -11.2316    3.6895 H         1 <0>         0.2171
     42 H15         6.9741  -11.4586    0.8512 H         1 <0>         0.4305
     43 H16         7.3650   -9.8771    0.4403 H         1 <0>         0.4443
     44 H17         5.2109  -11.8648    2.2943 H         1 <0>         0.4441
@<TRIPOS>BOND
     1    1   10 ar
     2    1    2 ar
     3    1   29 1
     4    2    3 ar
     5    2   30 1
     6    3    4 ar
     7    3   31 1
     8    4    9 ar
     9    4    5 ar
    10    5    6 ar
    11    5   32 1
    12    6    7 ar
    13    6   11 1
    14    7    8 ar
    15    7   33 1
    16    8    9 ar
    17    8   34 1
    18    9   10 ar
    19   10   35 1
    20   11   20 2
    21   11   12 1
    22   12   17 ar
    23   12   13 ar
    24   13   14 ar
    25   13   36 1
    26   14   15 ar
    27   14   21 1
    28   15   16 ar
    29   15   37 1
    30   16   17 ar
    31   16   38 1
    32   17   18 1
    33   18   19 1
    34   18   20 1
    35   21   22 1
    36   21   39 1
    37   22   27 ar
    38   22   23 ar
    39   23   24 ar
    40   23   40 1
    41   24   25 ar
    42   24   41 1
    43   25   26 ar
    44   25   44 1
    45   26   27 ar
    46   26   28 1
    47   28   42 1
    48   28   43 1
@<TRIPOS>MOLECULE
CHEMBL590834__3
   43    47     0     0     0
SMALL
USER_CHARGES

@<TRIPOS>ATOM
      1 C1         -1.0703    0.4772   -0.2679 C.ar      1 <0>        -0.1098
      2 C2          0.0267    1.3115   -0.4746 C.ar      1 <0>        -0.1134
      3 C3          1.2872    0.8043   -0.5513 C.ar      1 <0>        -0.1044
      4 C4          1.4891   -0.5817   -0.4201 C.ar      1 <0>        -0.0503
      5 C5          2.7750   -1.1369   -0.4937 C.ar      1 <0>        -0.0845
      6 C6          2.9340   -2.5078   -0.3592 C.ar      1 <0>        -0.0313
      7 C7          1.8171   -3.3390   -0.1506 C.ar      1 <0>        -0.0879
      8 C8          0.5666   -2.8180   -0.0769 C.ar      1 <0>        -0.0977
      9 C9          0.3725   -1.4303   -0.2094 C.ar      1 <0>        -0.0420
     10 C10        -0.9129   -0.8689   -0.1365 C.ar      1 <0>        -0.1073
     11 C11         4.2826   -3.0993   -0.4359 C.2       1 <0>         0.1435
     12 C12         4.8094   -4.0683    0.4213 C.ar      1 <0>        -0.1623
     13 C13         4.3254   -4.7653    1.5427 C.ar      1 <0>        -0.0449
     14 C14         5.1282   -5.6750    2.1671 C.ar      1 <0>         0.1140
     15 C15         6.4301   -5.9333    1.7172 C.ar      1 <0>        -0.0881
     16 C16         6.9524   -5.2934    0.6421 C.ar      1 <0>        -0.0845
     17 C17         6.1743   -4.3399   -0.0503 C.ar      1 <0>         0.0939
     18 N1          6.3810   -3.5659   -1.1020 N.2       1 <0>        -0.2906
     19 H1          5.1332   -2.1660   -2.0726 H         1 <0>         0.4430
     20 N2          5.2322   -2.8073   -1.3516 N.pl3     1 <0>        -0.4183
     21 N3          4.6408   -6.3651    3.2822 N.pl3     1 <0>        -0.6478
     22 C18         3.7596   -5.7422    4.1520 C.ar      1 <0>         0.4675
     23 C19         3.1724   -6.4573    5.1985 C.ar      1 <0>        -0.3395
     24 C20         2.3004   -5.7958    6.0405 C.ar      1 <0>         0.2174
     25 N4          2.0476   -4.5115    5.8331 N.ar      1 <0>        -0.6047
     26 C21         2.6189   -3.8580    4.8323 C.ar      1 <0>         0.6012
     27 N5          3.4650   -4.4543    4.0059 N.ar      1 <0>        -0.6113
     28 N6          2.3288   -2.5172    4.6492 N.pl3     1 <0>        -0.8200
     29 H2         -2.0599    0.9053   -0.2067 H         1 <0>         0.1256
     30 H3         -0.1258    2.3759   -0.5756 H         1 <0>         0.1257
     31 H4          2.1282    1.4624   -0.7125 H         1 <0>         0.1284
     32 H5          3.6339   -0.5021   -0.6540 H         1 <0>         0.1291
     33 H6          1.9575   -4.4050   -0.0482 H         1 <0>         0.1281
     34 H7         -0.2804   -3.4685    0.0836 H         1 <0>         0.1326
     35 H8         -1.7730   -1.5023    0.0235 H         1 <0>         0.1293
     36 H9          3.3255   -4.5816    1.9072 H         1 <0>         0.1388
     37 H10         7.0330   -6.6607    2.2405 H         1 <0>         0.1311
     38 H11         7.9590   -5.5115    0.3170 H         1 <0>         0.1353
     39 H12         4.9196   -7.2795    3.4466 H         1 <0>         0.4209
     40 H13         3.3951   -7.5038    5.3456 H         1 <0>         0.1407
     41 H14         1.8291   -6.3195    6.8590 H         1 <0>         0.1670
     42 H15         1.7139   -2.0676    5.2498 H         1 <0>         0.4148
     43 H16         2.7403   -2.0270    3.9203 H         1 <0>         0.4126
@<TRIPOS>BOND
     1    1   10 ar
     2    1    2 ar
     3    1   29 1
     4    2    3 ar
     5    2   30 1
     6    3    4 ar
     7    3   31 1
     8    4    9 ar
     9    4    5 ar
    10    5    6 ar
    11    5   32 1
    12    6    7 ar
    13    6   11 1
    14    7    8 ar
    15    7   33 1
    16    8    9 ar
    17    8   34 1
    18    9   10 ar
    19   10   35 1
    20   11   12 2
    21   11   20 1
    22   12   13 ar
    23   12   17 ar
    24   13   14 ar
    25   13   36 1
    26   14   15 ar
    27   14   21 1
    28   15   16 ar
    29   15   37 1
    30   16   17 ar
    31   16   38 1
    32   17   18 2
    33   18   20 1
    34   19   20 1
    35   21   22 1
    36   21   39 1
    37   22   27 ar
    38   22   23 ar
    39   23   24 ar
    40   23   40 1
    41   24   25 ar
    42   24   41 1
    43   25   26 ar
    44   26   27 ar
    45   26   28 1
    46   28   42 1
    47   28   43 1
@<TRIPOS>MOLECULE
CHEMBL564076
   43    47     0     0     0
SMALL
USER_CHARGES

@<TRIPOS>ATOM
      1 C1         -0.0187    1.5258    0.0104 C.3       1 <0>        -0.1634
      2 C2          0.0021   -0.0041    0.0020 C.3       1 <0>         0.1106
      3 H1         -1.0258   -0.3667    0.0099 H         1 <0>         0.0762
      4 C3          0.6715   -0.4726   -1.2696 C.3       1 <0>         0.1103
      5 N1          0.4735   -1.8796   -1.5207 N.pl3     1 <0>        -0.7325
      6 C4          1.0804   -2.8879   -0.7640 C.2       1 <0>         0.2483
      7 C5          1.3919   -4.1409   -1.3592 C.ar      1 <0>        -0.1228
      8 C6          1.1575   -4.5494   -2.7600 C.ar      1 <0>        -0.0501
      9 C7          0.5651   -3.6610   -3.6684 C.ar      1 <0>        -0.0810
     10 C8          0.3743   -4.0849   -4.9540 C.ar      1 <0>        -0.1467
     11 C9          0.7697   -5.3779   -5.3229 C.ar      1 <0>         0.1910
     12 N2          1.3230   -6.2044   -4.4553 N.ar      1 <0>        -0.4551
     13 C10         1.5321   -5.8403   -3.1864 C.ar      1 <0>         0.1369
     14 C11         2.1254   -6.7414   -2.2748 C.ar      1 <0>        -0.0523
     15 C12         2.3426   -6.3685   -0.9884 C.ar      1 <0>        -0.0627
     16 C13         1.9910   -5.1031   -0.5323 C.ar      1 <0>        -0.0943
     17 S1          2.1254   -4.2815    1.0347 S.3       1 <0>         0.1930
     18 C14         1.4031   -2.7177    0.5722 C.2       1 <0>        -0.2898
     19 C15         1.2407   -1.6230    1.4208 C.2       1 <0>         0.6031
     20 O1          1.7073   -1.7619    2.5370 O.2       1 <0>        -0.5676
     21 N3          0.6639   -0.4641    1.1983 N.am      1 <0>        -0.6969
     22 C16         0.5609   -5.8280   -6.7204 C.ar      1 <0>        -0.0577
     23 C17        -0.0169   -4.9685   -7.6532 C.ar      1 <0>        -0.0986
     24 C18        -0.2083   -5.3926   -8.9525 C.ar      1 <0>        -0.1236
     25 C19         0.1721   -6.6680   -9.3297 C.ar      1 <0>        -0.1047
     26 C20         0.7461   -7.5252   -8.4082 C.ar      1 <0>        -0.1252
     27 C21         0.9471   -7.1101   -7.1075 C.ar      1 <0>        -0.0761
     28 H2          1.0039    1.9031    0.0027 H         1 <0>         0.0686
     29 H3         -0.5459    1.8868   -0.8726 H         1 <0>         0.0786
     30 H4         -0.5289    1.8773    0.9072 H         1 <0>         0.0703
     31 H5          0.2681    0.0944   -2.1087 H         1 <0>         0.1047
     32 H6          1.7411   -0.2756   -1.1970 H         1 <0>         0.0733
     33 H7         -0.1095   -2.1395   -2.2511 H         1 <0>         0.4011
     34 H8          0.2681   -2.6692   -3.3612 H         1 <0>         0.1453
     35 H9         -0.0788   -3.4273   -5.6811 H         1 <0>         0.1442
     36 H10         2.4070   -7.7310   -2.6029 H         1 <0>         0.1512
     37 H11         2.7975   -7.0696   -0.3044 H         1 <0>         0.1462
     38 H12         0.6836    0.1640    1.9372 H         1 <0>         0.4052
     39 H13        -0.3146   -3.9727   -7.3598 H         1 <0>         0.1267
     40 H14        -0.6563   -4.7276   -9.6761 H         1 <0>         0.1275
     41 H15         0.0201   -6.9958  -10.3475 H         1 <0>         0.1254
     42 H16         1.0412   -8.5199   -8.7082 H         1 <0>         0.1274
     43 H17         1.3994   -7.7787   -6.3899 H         1 <0>         0.1359
@<TRIPOS>BOND
     1    1    2 1
     2    1   28 1
     3    1   29 1
     4    1   30 1
     5    2    3 1
     6    2   21 1
     7    2    4 1
     8    4    5 1
     9    4   31 1
    10    4   32 1
    11    5    6 1
    12    5   33 1
    13    6   18 2
    14    6    7 1
    15    7   16 ar
    16    7    8 ar
    17    8   13 ar
    18    8    9 ar
    19    9   10 ar
    20    9   34 1
    21   10   11 ar
    22   10   35 1
    23   11   12 ar
    24   11   22 1
    25   12   13 ar
    26   13   14 ar
    27   14   15 ar
    28   14   36 1
    29   15   16 ar
    30   15   37 1
    31   16   17 1
    32   17   18 1
    33   18   19 1
    34   19   20 2
    35   19   21 am
    36   21   38 1
    37   22   27 ar
    38   22   23 ar
    39   23   24 ar
    40   23   39 1
    41   24   25 ar
    42   24   40 1
    43   25   26 ar
    44   25   41 1
    45   26   27 ar
    46   26   42 1
    47   27   43 1
@<TRIPOS>MOLECULE
CHEMBL552339
   42    46     0     0     0
SMALL
USER_CHARGES

@<TRIPOS>ATOM
      1 C1         -0.0187    1.5258    0.0104 C.3       1 <0>        -0.1636
      2 C2          0.0021   -0.0041    0.0020 C.3       1 <0>         0.1104
      3 H1         -1.0258   -0.3668    0.0099 H         1 <0>         0.0764
      4 C3          0.6718   -0.4728   -1.2697 C.3       1 <0>         0.1101
      5 N1          0.4743   -1.8797   -1.5211 N.pl3     1 <0>        -0.7324
      6 C4          1.0811   -2.8881   -0.7643 C.2       1 <0>         0.2479
      7 C5          1.3946   -4.1406   -1.3596 C.ar      1 <0>        -0.1241
      8 C6          1.1664   -4.5485   -2.7616 C.ar      1 <0>        -0.0437
      9 C7          0.5746   -3.6620   -3.6718 C.ar      1 <0>        -0.0804
     10 C8          0.3913   -4.0857   -4.9589 C.ar      1 <0>        -0.1412
     11 C9          0.7947   -5.3758   -5.3276 C.ar      1 <0>         0.1806
     12 N2          1.3476   -6.2007   -4.4584 N.ar      1 <0>        -0.4469
     13 C10         1.5459   -5.8385   -3.1877 C.ar      1 <0>         0.1358
     14 C11         2.1323   -6.7415   -2.2732 C.ar      1 <0>        -0.0521
     15 C12         2.3416   -6.3699   -0.9854 C.ar      1 <0>        -0.0611
     16 C13         1.9907   -5.1034   -0.5311 C.ar      1 <0>        -0.0936
     17 S1          2.1244   -4.2813    1.0357 S.3       1 <0>         0.1983
     18 C14         1.4031   -2.7175    0.5721 C.2       1 <0>        -0.2889
     19 C15         1.2410   -1.6225    1.4204 C.2       1 <0>         0.6028
     20 O1          1.7079   -1.7610    2.5365 O.2       1 <0>        -0.5672
     21 N3          0.6641   -0.4642    1.1980 N.am      1 <0>        -0.6964
     22 C16         0.5954   -5.8251   -6.7273 C.ar      1 <0>        -0.0078
     23 C17         0.0182   -4.9783   -7.6778 C.ar      1 <0>        -0.1554
     24 C18        -0.1489   -5.4365   -8.9689 C.ar      1 <0>         0.0998
     25 N4          0.2276   -6.6539   -9.3094 N.ar      1 <0>        -0.4783
     26 C19         0.7759   -7.4841   -8.4434 C.ar      1 <0>         0.0985
     27 C20         0.9849   -7.1047   -7.1330 C.ar      1 <0>        -0.1326
     28 H2          1.0039    1.9031    0.0027 H         1 <0>         0.0687
     29 H3         -0.5459    1.8868   -0.8726 H         1 <0>         0.0788
     30 H4         -0.5289    1.8773    0.9072 H         1 <0>         0.0706
     31 H5          0.2685    0.0942   -2.1087 H         1 <0>         0.1051
     32 H6          1.7413   -0.2756   -1.1968 H         1 <0>         0.0736
     33 H7         -0.1089   -2.1396   -2.2514 H         1 <0>         0.4009
     34 H8          0.2715   -2.6719   -3.3650 H         1 <0>         0.1470
     35 H9         -0.0623   -3.4297   -5.6872 H         1 <0>         0.1457
     36 H10         2.4145   -7.7313   -2.6003 H         1 <0>         0.1525
     37 H11         2.7899   -7.0726   -0.2986 H         1 <0>         0.1474
     38 H12         0.6835    0.1638    1.9370 H         1 <0>         0.4055
     39 H13        -0.2926   -3.9804   -7.4059 H         1 <0>         0.1393
     40 H14        -0.5942   -4.7896   -9.7103 H         1 <0>         0.1610
     41 H15         1.0691   -8.4725   -8.7651 H         1 <0>         0.1613
     42 H16         1.4389   -7.7878   -6.4304 H         1 <0>         0.1477
@<TRIPOS>BOND
     1    1    2 1
     2    1   28 1
     3    1   29 1
     4    1   30 1
     5    2    3 1
     6    2   21 1
     7    2    4 1
     8    4    5 1
     9    4   31 1
    10    4   32 1
    11    5    6 1
    12    5   33 1
    13    6   18 2
    14    6    7 1
    15    7   16 ar
    16    7    8 ar
    17    8   13 ar
    18    8    9 ar
    19    9   10 ar
    20    9   34 1
    21   10   11 ar
    22   10   35 1
    23   11   12 ar
    24   11   22 1
    25   12   13 ar
    26   13   14 ar
    27   14   15 ar
    28   14   36 1
    29   15   16 ar
    30   15   37 1
    31   16   17 1
    32   17   18 1
    33   18   19 1
    34   19   20 2
    35   19   21 am
    36   21   38 1
    37   22   27 ar
    38   22   23 ar
    39   23   24 ar
    40   23   39 1
    41   24   25 ar
    42   24   40 1
    43   25   26 ar
    44   26   27 ar
    45   26   41 1
    46   27   42 1
@<TRIPOS>MOLECULE
CHEMBL162
   62    69     0     0     0
SMALL
USER_CHARGES

@<TRIPOS>ATOM
      1 C1         -0.1276    1.5938   -0.2902 C.3       1 <0>        -0.1687
      2 C2         -0.0844    0.0680   -0.1855 C.3       1 <0>         0.3345
      3 C3          0.5692   -0.4497   -1.4608 C.3       1 <0>         0.0405
      4 H1          1.4795    0.1163   -1.6584 H         1 <0>         0.1372
      5 C4          0.9165   -1.9328   -1.2885 C.3       1 <0>        -0.0062
      6 H2          1.3941   -2.3067   -2.1942 H         1 <0>         0.1555
      7 C5          1.8808   -2.0612   -0.1039 C.3       1 <0>        -0.1828
      8 C6          1.2106   -1.5234    1.1545 C.3       1 <0>         0.3001
      9 O1          0.6584   -0.2480    0.9698 O.3       1 <0>        -0.3232
     10 N1          0.2248   -2.4800    1.6600 N.pl3     1 <0>        -0.5368
     11 C7          0.4774   -3.5588    2.4701 C.ar      1 <0>         0.1470
     12 C8          1.6719   -4.0282    3.0159 C.ar      1 <0>        -0.1521
     13 C9          1.6013   -5.1613    3.8083 C.ar      1 <0>        -0.0582
     14 C10         0.4065   -5.8141    4.0588 C.ar      1 <0>        -0.1457
     15 C11        -0.7928   -5.3694    3.5296 C.ar      1 <0>        -0.0281
     16 C12        -0.7420   -4.2270    2.7281 C.ar      1 <0>        -0.1133
     17 C13        -1.7834   -3.4873    2.0211 C.ar      1 <0>         0.0272
     18 C14        -1.1387   -2.4235    1.3862 C.ar      1 <0>         0.0375
     19 C15        -1.8766   -1.5121    0.6225 C.ar      1 <0>         0.0893
     20 N2         -1.4701   -0.3965   -0.1042 N.pl3     1 <0>        -0.5183
     21 C16        -2.5609    0.1893   -0.7020 C.ar      1 <0>         0.1620
     22 C17        -2.6555    1.3256   -1.5046 C.ar      1 <0>        -0.1301
     23 C18        -3.9158    1.6704   -1.9636 C.ar      1 <0>        -0.0737
     24 C19        -5.0430    0.9315   -1.6503 C.ar      1 <0>        -0.1357
     25 C20        -4.9749   -0.2010   -0.8555 C.ar      1 <0>        -0.0503
     26 C21        -3.7134   -0.5626   -0.3834 C.ar      1 <0>        -0.1044
     27 C22        -3.2655   -1.6685    0.4924 C.ar      1 <0>        -0.0362
     28 C23        -3.9045   -2.7331    1.1195 C.ar      1 <0>        -0.0289
     29 C24        -3.1819   -3.6452    1.8815 C.ar      1 <0>        -0.1255
     30 C25        -4.1160   -4.6505    2.4114 C.2       1 <0>         0.5633
     31 O2         -3.7988   -5.5888    3.1172 O.2       1 <0>        -0.5106
     32 N3         -5.3694   -4.3854    2.0058 N.am      1 <0>        -0.7162
     33 C26        -5.3459   -3.1769    1.1740 C.3       1 <0>         0.1359
     34 N4         -0.3065   -2.7008   -1.0194 N.4       1 <0>        -0.5253
     35 C27         0.0148   -4.1335   -0.9747 C.3       1 <0>        -0.0497
     36 O3         -0.3352   -0.2957   -2.5564 O.3       1 <0>        -0.3613
     37 C28         0.3074   -0.0892   -3.8159 C.3       1 <0>         0.0162
     38 H3          0.8308    2.0068    0.0247 H         1 <0>         0.0984
     39 H4         -0.3256    1.8817   -1.3227 H         1 <0>         0.1037
     40 H5         -0.9185    1.9799    0.3528 H         1 <0>         0.0921
     41 H6          2.1400   -3.1098    0.0419 H         1 <0>         0.1233
     42 H7          2.7852   -1.4878   -0.3076 H         1 <0>         0.1455
     43 H8          1.9835   -1.4379    1.9183 H         1 <0>         0.1550
     44 H9          2.6113   -3.5296    2.8282 H         1 <0>         0.1364
     45 H10         2.5093   -5.5494    4.2456 H         1 <0>         0.1359
     46 H11         0.4102   -6.6943    4.6846 H         1 <0>         0.1352
     47 H12        -1.7231   -5.8814    3.7271 H         1 <0>         0.1602
     48 H13        -1.7841    1.9115   -1.7569 H         1 <0>         0.1438
     49 H14        -4.0225    2.5459   -2.5869 H         1 <0>         0.1335
     50 H15        -6.0015    1.2460   -2.0361 H         1 <0>         0.1333
     51 H16        -5.8562   -0.7761   -0.6128 H         1 <0>         0.1416
     52 H17        -6.1577   -4.9060    2.2257 H         1 <0>         0.4348
     53 H18        -5.9609   -2.3989    1.6262 H         1 <0>         0.1115
     54 H19        -5.7062   -3.4047    0.1708 H         1 <0>         0.1104
     55 H20        -0.6946   -2.4153   -0.1328 H         1 <0>         0.4186
     56 H21         0.7414   -4.3184   -0.1836 H         1 <0>         0.1191
     57 H22        -0.8927   -4.7033   -0.7750 H         1 <0>         0.1256
     58 H23         0.4340   -4.4418   -1.9324 H         1 <0>         0.1255
     59 H24        -0.4469    0.0185   -4.5954 H         1 <0>         0.1100
     60 H25         0.9142    0.8152   -3.7703 H         1 <0>         0.0633
     61 H26         0.9451   -0.9435   -4.0429 H         1 <0>         0.0514
     62 H27        -0.9792   -2.5296   -1.7517 H         1 <0>         0.4274
@<TRIPOS>BOND
     1    1    2 1
     2    1   38 1
     3    1   39 1
     4    1   40 1
     5    2    9 1
     6    2   20 1
     7    2    3 1
     8    3    4 1
     9    3    5 1
    10    3   36 1
    11    5    6 1
    12    5    7 1
    13    5   34 1
    14    7    8 1
    15    7   41 1
    16    7   42 1
    17    8    9 1
    18    8   10 1
    19    8   43 1
    20   10   18 1
    21   10   11 1
    22   11   16 ar
    23   11   12 ar
    24   12   13 ar
    25   12   44 1
    26   13   14 ar
    27   13   45 1
    28   14   15 ar
    29   14   46 1
    30   15   16 ar
    31   15   47 1
    32   16   17 1
    33   17   29 ar
    34   17   18 ar
    35   18   19 ar
    36   19   27 ar
    37   19   20 1
    38   20   21 1
    39   21   26 ar
    40   21   22 ar
    41   22   23 ar
    42   22   48 1
    43   23   24 ar
    44   23   49 1
    45   24   25 ar
    46   24   50 1
    47   25   26 ar
    48   25   51 1
    49   26   27 1
    50   27   28 ar
    51   28   33 1
    52   28   29 ar
    53   29   30 1
    54   30   31 2
    55   30   32 am
    56   32   33 1
    57   32   52 1
    58   33   53 1
    59   33   54 1
    60   34   35 1
    61   34   55 1
    62   34   62 1
    63   35   56 1
    64   35   57 1
    65   35   58 1
    66   36   37 1
    67   37   59 1
    68   37   60 1
    69   37   61 1
@<TRIPOS>MOLECULE
CHEMBL162__1
   61    68     0     0     0
SMALL
USER_CHARGES

@<TRIPOS>ATOM
      1 C1         -0.0567    1.5513   -0.0894 C.3       1 <0>        -0.1681
      2 C2         -0.0278    0.0218   -0.0599 C.3       1 <0>         0.3623
      3 C3          0.5811   -0.4397   -1.3782 C.3       1 <0>         0.0679
      4 H1          1.4914    0.1262   -1.5761 H         1 <0>         0.0865
      5 C4          0.9165   -1.9328   -1.2885 C.3       1 <0>         0.0550
      6 H2          1.3622   -2.2669   -2.2254 H         1 <0>         0.0644
      7 C5          1.9146   -2.1282   -0.1417 C.3       1 <0>        -0.1713
      8 C6          1.2889   -1.6457    1.1613 C.3       1 <0>         0.3303
      9 O1          0.7459   -0.3574    1.0554 O.3       1 <0>        -0.3432
     10 N1          0.3079   -2.6158    1.6500 N.pl3     1 <0>        -0.5147
     11 C7          0.5725   -3.7353    2.3988 C.ar      1 <0>         0.1480
     12 C8          1.7775   -4.2425    2.8844 C.ar      1 <0>        -0.1567
     13 C9          1.7179   -5.4120    3.6229 C.ar      1 <0>        -0.0771
     14 C10         0.5239   -6.0644    3.8782 C.ar      1 <0>        -0.1623
     15 C11        -0.6857   -5.5826    3.4081 C.ar      1 <0>        -0.0380
     16 C12        -0.6461   -4.4031    2.6615 C.ar      1 <0>        -0.1052
     17 C13        -1.6998   -3.6196    2.0235 C.ar      1 <0>        -0.0146
     18 C14        -1.0625   -2.5326    1.4212 C.ar      1 <0>         0.1328
     19 C15        -1.8127   -1.5778    0.7254 C.ar      1 <0>         0.2189
     20 N2         -1.4156   -0.4323    0.0413 N.pl3     1 <0>        -0.4798
     21 C16        -2.5171    0.1927   -0.4937 C.ar      1 <0>         0.1719
     22 C17        -2.6230    1.3676   -1.2371 C.ar      1 <0>        -0.1371
     23 C18        -3.8926    1.7468   -1.6400 C.ar      1 <0>        -0.0918
     24 C19        -5.0181    1.0048   -1.3284 C.ar      1 <0>        -0.1543
     25 C20        -4.9390   -0.1657   -0.5916 C.ar      1 <0>        -0.0609
     26 C21        -3.6680   -0.5623   -0.1765 C.ar      1 <0>        -0.0961
     27 C22        -3.2066   -1.7140    0.6307 C.ar      1 <0>        -0.0806
     28 C23        -3.8384   -2.8014    1.2249 C.ar      1 <0>        -0.0396
     29 C24        -3.1037   -3.7566    1.9194 C.ar      1 <0>        -0.1488
     30 C25        -4.0327   -4.7771    2.4285 C.2       1 <0>         0.5678
     31 O2         -3.7051   -5.7517    3.0781 O.2       1 <0>        -0.5303
     32 N3         -5.2947   -4.4802    2.0748 N.am      1 <0>        -0.7263
     33 C26        -5.2825   -3.2330    1.3021 C.3       1 <0>         0.1443
     34 N4         -0.3065   -2.7008   -1.0194 N.3       1 <0>        -0.6725
     35 C27        -0.9816   -3.0711   -2.2704 C.3       1 <0>         0.0321
     36 O3         -0.3541   -0.2236   -2.4368 O.3       1 <0>        -0.3500
     37 C28         0.2525    0.0376   -3.7040 C.3       1 <0>         0.0254
     38 H3          0.9143    1.9390    0.2190 H         1 <0>         0.0847
     39 H4         -0.2789    1.8910   -1.1010 H         1 <0>         0.0945
     40 H5         -0.8258    1.9134    0.5927 H         1 <0>         0.0811
     41 H6          2.1661   -3.1852   -0.0547 H         1 <0>         0.0955
     42 H7          2.8189   -1.5546   -0.3450 H         1 <0>         0.1024
     43 H8          2.0854   -1.6051    1.9042 H         1 <0>         0.1256
     44 H9          2.7165   -3.7447    2.6923 H         1 <0>         0.1264
     45 H10         2.6343   -5.8299    4.0129 H         1 <0>         0.1227
     46 H11         0.5364   -6.9739    4.4603 H         1 <0>         0.1222
     47 H12        -1.6153   -6.0942    3.6091 H         1 <0>         0.1517
     48 H13        -1.7529    1.9564   -1.4875 H         1 <0>         0.1345
     49 H14        -4.0081    2.6526   -2.2167 H         1 <0>         0.1197
     50 H15        -5.9842    1.3471   -1.6689 H         1 <0>         0.1193
     51 H16        -5.8191   -0.7431   -0.3501 H         1 <0>         0.1299
     52 H17        -6.0819   -5.0031    2.2935 H         1 <0>         0.4244
     53 H18        -5.8747   -2.4718    1.8101 H         1 <0>         0.0969
     54 H19        -5.6755   -3.4081    0.3006 H         1 <0>         0.0963
     55 H20        -0.1054   -3.5172   -0.4616 H         1 <0>         0.3444
     56 H21        -1.8838   -3.6387   -2.0422 H         1 <0>         0.0645
     57 H22        -1.2495   -2.1685   -2.8197 H         1 <0>         0.0818
     58 H23        -0.3126   -3.6808   -2.8776 H         1 <0>         0.0150
     59 H24        -0.5237    0.1905   -4.4538 H         1 <0>         0.0929
     60 H25         0.8707    0.9325   -3.6333 H         1 <0>         0.0448
     61 H26         0.8732   -0.8111   -3.9915 H         1 <0>         0.0400
@<TRIPOS>BOND
     1    1    2 1
     2    1   38 1
     3    1   39 1
     4    1   40 1
     5    2    9 1
     6    2   20 1
     7    2    3 1
     8    3    4 1
     9    3    5 1
    10    3   36 1
    11    5    6 1
    12    5    7 1
    13    5   34 1
    14    7    8 1
    15    7   41 1
    16    7   42 1
    17    8    9 1
    18    8   10 1
    19    8   43 1
    20   10   18 1
    21   10   11 1
    22   11   16 ar
    23   11   12 ar
    24   12   13 ar
    25   12   44 1
    26   13   14 ar
    27   13   45 1
    28   14   15 ar
    29   14   46 1
    30   15   16 ar
    31   15   47 1
    32   16   17 1
    33   17   29 ar
    34   17   18 ar
    35   18   19 ar
    36   19   27 ar
    37   19   20 1
    38   20   21 1
    39   21   26 ar
    40   21   22 ar
    41   22   23 ar
    42   22   48 1
    43   23   24 ar
    44   23   49 1
    45   24   25 ar
    46   24   50 1
    47   25   26 ar
    48   25   51 1
    49   26   27 1
    50   27   28 ar
    51   28   33 1
    52   28   29 ar
    53   29   30 1
    54   30   31 2
    55   30   32 am
    56   32   33 1
    57   32   52 1
    58   33   53 1
    59   33   54 1
    60   34   35 1
    61   34   55 1
    62   35   56 1
    63   35   57 1
    64   35   58 1
    65   36   37 1
    66   37   59 1
    67   37   60 1
    68   37   61 1
@<TRIPOS>MOLECULE
CHEMBL181212
   33    35     0     0     0
SMALL
USER_CHARGES

@<TRIPOS>ATOM
      1 C1         -0.0167    1.3792    0.0096 C.ar      1 <0>        -0.0926
      2 C2          1.1701    2.0957    0.0021 C.ar      1 <0>        -0.1629
      3 C3          2.3813    1.4274   -0.0082 C.ar      1 <0>         0.1509
      4 C4          2.4026    0.0361   -0.0184 C.ar      1 <0>        -0.1607
      5 C5          1.2188   -0.6795   -0.0132 C.ar      1 <0>         0.1211
      6 C6          0.0021   -0.0041    0.0020 C.ar      1 <0>         0.0508
      7 O1         -1.1658   -0.7023    0.0094 O.3       1 <0>        -0.4903
      8 O2          1.2439   -2.0391   -0.0234 O.3       1 <0>        -0.4893
      9 O3          3.5649    2.0921    0.0024 O.3       1 <0>        -0.2962
     10 C7          3.5736    3.4748   -0.3637 C.3       1 <0>         0.1072
     11 C8          4.9189    4.0777    0.0780 C.3       1 <0>        -0.0715
     12 C9          5.0902    3.7562    1.5483 C.2       1 <0>         0.2780
     13 C10         3.9152    3.8917    2.4260 C.2       1 <0>        -0.2549
     14 C11         2.6691    4.0884    1.8811 C.2       1 <0>         0.3090
     15 C12         2.4562    4.1878    0.4019 C.3       1 <0>        -0.1047
     16 C13         1.1071    3.6014   -0.0005 C.3       1 <0>        -0.0716
     17 N1          1.5968    4.1955    2.7099 N.pl3     1 <0>        -0.8262
     18 C14         4.0715    3.8190    3.8476 C.1       1 <0>         0.2572
     19 N2          4.1954    3.7614    4.9754 N.1       1 <0>        -0.4400
     20 N3          6.2368    3.3736    2.0200 N.2       1 <0>        -0.6893
     21 H1         -0.9607    1.9035    0.0260 H         1 <0>         0.1368
     22 H2          3.3473   -0.4872   -0.0308 H         1 <0>         0.1436
     23 H3         -1.5119   -0.8994   -0.8718 H         1 <0>         0.3911
     24 H4          1.2589   -2.4388    0.8569 H         1 <0>         0.3976
     25 H5          3.4309    3.5859   -1.4386 H         1 <0>         0.1090
     26 H6          5.7316    3.6335   -0.4966 H         1 <0>         0.1101
     27 H7          2.4585    5.2407    0.1201 H         1 <0>         0.1322
     28 H8          0.8457    3.9499   -0.9996 H         1 <0>         0.1019
     29 H9          0.3451    3.9320    0.7053 H         1 <0>         0.0859
     30 H10         1.7179    4.1330    3.6702 H         1 <0>         0.4082
     31 H11         0.7106    4.3345    2.3408 H         1 <0>         0.4073
     32 H12         6.3298    3.1715    2.9641 H         1 <0>         0.3348
     33 H13         4.9073    5.1580   -0.0671 H         1 <0>         0.1175
@<TRIPOS>BOND
     1    1    6 ar
     2    1    2 ar
     3    1   21 1
     4    2   16 1
     5    2    3 ar
     6    3    4 ar
     7    3    9 1
     8    4    5 ar
     9    4   22 1
    10    5    6 ar
    11    5    8 1
    12    6    7 1
    13    7   23 1
    14    8   24 1
    15    9   10 1
    16   10   15 1
    17   10   11 1
    18   10   25 1
    19   11   12 1
    20   11   26 1
    21   11   33 1
    22   12   13 1
    23   12   20 2
    24   13   14 2
    25   13   18 1
    26   14   15 1
    27   14   17 1
    28   15   16 1
    29   15   27 1
    30   16   28 1
    31   16   29 1
    32   17   30 1
    33   17   31 1
    34   18   19 3
    35   20   32 1
@<TRIPOS>MOLECULE
CHEMBL181212__1
   33    35     0     0     0
SMALL
USER_CHARGES

@<TRIPOS>ATOM
      1 C1          0.0687    1.2177    0.1426 C.ar      1 <0>        -0.0919
      2 C2          1.2321    1.9702    0.0996 C.ar      1 <0>        -0.1672
      3 C3          2.4640    1.3415    0.1144 C.ar      1 <0>         0.1565
      4 C4          2.5294   -0.0479    0.1607 C.ar      1 <0>        -0.1688
      5 C5          1.3692   -0.7997    0.2016 C.ar      1 <0>         0.1196
      6 C6          0.1313   -0.1634    0.1950 C.ar      1 <0>         0.0422
      7 O1         -1.0136   -0.8973    0.2395 O.3       1 <0>        -0.4913
      8 O2          1.4378   -2.1571    0.2476 O.3       1 <0>        -0.4908
      9 O3          3.6253    2.0427    0.0998 O.3       1 <0>        -0.3077
     10 C7          3.6004    3.4121   -0.3120 C.3       1 <0>         0.1907
     11 C8          4.8947    4.0562    0.1686 C.2       1 <0>        -0.4564
     12 C9          5.1048    4.0160    1.6305 C.2       1 <0>         0.3387
     13 C10         3.8864    4.1395    2.4718 C.2       1 <0>        -0.2307
     14 C11         2.6490    4.1696    1.8801 C.2       1 <0>         0.3315
     15 C12         2.4481    4.1208    0.4015 C.3       1 <0>        -0.1070
     16 C13         1.1225    3.4714    0.0297 C.3       1 <0>        -0.0707
     17 N1          1.5513    4.2478    2.6798 N.pl3     1 <0>        -0.8283
     18 C14         4.0033    4.2264    3.8964 C.1       1 <0>         0.2556
     19 N2          4.0961    4.2954    5.0265 N.1       1 <0>        -0.4422
     20 N3          6.2977    3.8787    2.1551 N.pl3     1 <0>        -0.7977
     21 H1         -0.8914    1.7123    0.1398 H         1 <0>         0.1339
     22 H2          3.4901   -0.5412    0.1645 H         1 <0>         0.1405
     23 H3         -1.3571   -1.1435   -0.6302 H         1 <0>         0.3888
     24 H4          1.4689   -2.5192    1.1437 H         1 <0>         0.3955
     25 H5          3.4934    3.4900   -1.3940 H         1 <0>         0.0926
     26 H6          5.6047    4.5083   -0.5080 H         1 <0>         0.1329
     27 H7          2.4131    5.1473    0.0366 H         1 <0>         0.1271
     28 H8          0.8497    3.7653   -0.9839 H         1 <0>         0.0979
     29 H9          0.3504    3.8082    0.7214 H         1 <0>         0.0798
     30 H10         1.6448    4.1627    3.6415 H         1 <0>         0.4066
     31 H11         0.6750    4.3886    2.2882 H         1 <0>         0.4090
     32 H12         7.0746    3.8001    1.5796 H         1 <0>         0.4137
     33 H13         6.4039    3.8558    3.1190 H         1 <0>         0.3976
@<TRIPOS>BOND
     1    1    6 ar
     2    1    2 ar
     3    1   21 1
     4    2   16 1
     5    2    3 ar
     6    3    4 ar
     7    3    9 1
     8    4    5 ar
     9    4   22 1
    10    5    6 ar
    11    5    8 1
    12    6    7 1
    13    7   23 1
    14    8   24 1
    15    9   10 1
    16   10   15 1
    17   10   11 1
    18   10   25 1
    19   11   12 1
    20   11   26 1
    21   12   13 1
    22   12   20 2
    23   13   14 2
    24   13   18 1
    25   14   15 1
    26   14   17 1
    27   15   16 1
    28   15   27 1
    29   16   28 1
    30   16   29 1
    31   17   30 1
    32   17   31 1
    33   18   19 3
    34   20   32 1
    35   20   33 1
@<TRIPOS>MOLECULE
CHEMBL181212__2
   33    35     0     0     0
SMALL
USER_CHARGES

@<TRIPOS>ATOM
      1 C1         -0.0167    1.3792    0.0096 C.ar      1 <0>        -0.0924
      2 C2          1.1700    2.0957    0.0021 C.ar      1 <0>        -0.1537
      3 C3          2.3810    1.4268   -0.0122 C.ar      1 <0>         0.1430
      4 C4          2.4026    0.0359   -0.0215 C.ar      1 <0>        -0.1574
      5 C5          1.2188   -0.6797   -0.0147 C.ar      1 <0>         0.1207
      6 C6          0.0021   -0.0041    0.0020 C.ar      1 <0>         0.0544
      7 O1         -1.1659   -0.7022    0.0109 O.3       1 <0>        -0.4900
      8 O2          1.2437   -2.0393   -0.0244 O.3       1 <0>        -0.4886
      9 O3          3.5686    2.0910   -0.0135 O.3       1 <0>        -0.2966
     10 C7          3.5501    3.4726   -0.3768 C.3       1 <0>         0.1094
     11 C8          4.9063    4.1102   -0.0567 C.3       1 <0>        -0.0672
     12 C9          4.8442    5.5590   -0.4950 C.2       1 <0>         0.2730
     13 C10         3.6140    6.3127   -0.1969 C.2       1 <0>        -0.2612
     14 C11         2.4920    5.6521    0.2376 C.2       1 <0>         0.3146
     15 C12         2.4590    4.1682    0.4422 C.3       1 <0>        -0.1027
     16 C13         1.1038    3.6032    0.0085 C.3       1 <0>        -0.0742
     17 N1          1.3672    6.3720    0.4922 N.pl3     1 <0>        -0.8258
     18 C14         3.5889    7.7351   -0.3600 C.1       1 <0>         0.2557
     19 N2          3.5689    8.8635   -0.4894 N.1       1 <0>        -0.4347
     20 N3          5.8403    6.1170   -1.1114 N.2       1 <0>        -0.6817
     21 H1         -0.9607    1.9035    0.0260 H         1 <0>         0.1382
     22 H2          3.3473   -0.4874   -0.0345 H         1 <0>         0.1461
     23 H3         -1.5130   -0.8993   -0.8699 H         1 <0>         0.3921
     24 H4          1.2597   -2.4387    0.8562 H         1 <0>         0.3982
     25 H5          3.3290    3.5695   -1.4398 H         1 <0>         0.0927
     26 H6          5.0971    4.0557    1.0151 H         1 <0>         0.1070
     27 H7          2.6069    3.9474    1.4993 H         1 <0>         0.1275
     28 H8          0.8640    3.9610   -0.9928 H         1 <0>         0.0924
     29 H9          0.3331    3.9306    0.7063 H         1 <0>         0.0915
     30 H10         1.3680    7.3338    0.3660 H         1 <0>         0.4098
     31 H11         0.5639    5.9240    0.8000 H         1 <0>         0.4097
     32 H12         5.7827    7.0459   -1.3846 H         1 <0>         0.3389
     33 H13         5.6963    3.5925   -0.6008 H         1 <0>         0.1113
@<TRIPOS>BOND
     1    1    6 ar
     2    1    2 ar
     3    1   21 1
     4    2   16 1
     5    2    3 ar
     6    3    4 ar
     7    3    9 1
     8    4    5 ar
     9    4   22 1
    10    5    6 ar
    11    5    8 1
    12    6    7 1
    13    7   23 1
    14    8   24 1
    15    9   10 1
    16   10   15 1
    17   10   11 1
    18   10   25 1
    19   11   12 1
    20   11   26 1
    21   11   33 1
    22   12   13 1
    23   12   20 2
    24   13   14 2
    25   13   18 1
    26   14   15 1
    27   14   17 1
    28   15   16 1
    29   15   27 1
    30   16   28 1
    31   16   29 1
    32   17   30 1
    33   17   31 1
    34   18   19 3
    35   20   32 1
@<TRIPOS>MOLECULE
CHEMBL181212__3
   33    35     0     0     0
SMALL
USER_CHARGES

@<TRIPOS>ATOM
      1 C1         -0.0167    1.3792    0.0096 C.ar      1 <0>        -0.0924
      2 C2          1.1699    2.0957    0.0021 C.ar      1 <0>        -0.1557
      3 C3          2.3810    1.4267   -0.0129 C.ar      1 <0>         0.1469
      4 C4          2.4027    0.0358   -0.0200 C.ar      1 <0>        -0.1616
      5 C5          1.2187   -0.6797   -0.0125 C.ar      1 <0>         0.1195
      6 C6          0.0021   -0.0041    0.0020 C.ar      1 <0>         0.0489
      7 O1         -1.1659   -0.7022    0.0092 O.3       1 <0>        -0.4905
      8 O2          1.2436   -2.0394   -0.0205 O.3       1 <0>        -0.4896
      9 O3          3.5717    2.0895   -0.0216 O.3       1 <0>        -0.2942
     10 C7          3.5401    3.4658   -0.3980 C.3       1 <0>         0.1945
     11 C8          4.8694    4.1265   -0.1017 C.2       1 <0>        -0.4265
     12 C9          4.9105    5.5861   -0.3349 C.2       1 <0>         0.3036
     13 C10         3.6545    6.3277   -0.0529 C.2       1 <0>        -0.2248
     14 C11         2.5154    5.6453    0.2889 C.2       1 <0>         0.3238
     15 C12         2.4604    4.1603    0.4384 C.3       1 <0>        -0.1091
     16 C13         1.1014    3.6047    0.0113 C.3       1 <0>        -0.0737
     17 N1          1.3764    6.3577    0.5029 N.pl3     1 <0>        -0.8292
     18 C14         3.6336    7.7571   -0.1377 C.1       1 <0>         0.2553
     19 N2          3.6170    8.8910   -0.2050 N.1       1 <0>        -0.4395
     20 N3          5.9912    6.1899   -0.7645 N.pl3     1 <0>        -0.8034
     21 H1         -0.9607    1.9035    0.0260 H         1 <0>         0.1365
     22 H2          3.3474   -0.4875   -0.0317 H         1 <0>         0.1441
     23 H3         -1.5118   -0.8992   -0.8720 H         1 <0>         0.3902
     24 H4          1.2594   -2.4376    0.8606 H         1 <0>         0.3968
     25 H5          3.2979    3.5523   -1.4572 H         1 <0>         0.0704
     26 H6          5.7255    3.5722    0.2537 H         1 <0>         0.1343
     27 H7          2.6134    3.9075    1.4875 H         1 <0>         0.1210
     28 H8          0.8579    3.9650   -0.9882 H         1 <0>         0.0891
     29 H9          0.3359    3.9311    0.7152 H         1 <0>         0.0865
     30 H10         1.3842    7.3234    0.4125 H         1 <0>         0.4073
     31 H11         0.5564    5.8999    0.7458 H         1 <0>         0.4102
     32 H12         6.7961    5.6775   -0.9392 H         1 <0>         0.4129
     33 H13         5.9864    7.1492   -0.9078 H         1 <0>         0.3986
@<TRIPOS>BOND
     1    1    6 ar
     2    1    2 ar
     3    1   21 1
     4    2   16 1
     5    2    3 ar
     6    3    4 ar
     7    3    9 1
     8    4    5 ar
     9    4   22 1
    10    5    6 ar
    11    5    8 1
    12    6    7 1
    13    7   23 1
    14    8   24 1
    15    9   10 1
    16   10   15 1
    17   10   11 1
    18   10   25 1
    19   11   12 1
    20   11   26 1
    21   12   13 1
    22   12   20 2
    23   13   14 2
    24   13   18 1
    25   14   15 1
    26   14   17 1
    27   15   16 1
    28   15   27 1
    29   16   28 1
    30   16   29 1
    31   17   30 1
    32   17   31 1
    33   18   19 3
    34   20   32 1
    35   20   33 1
@<TRIPOS>MOLECULE
CHEMBL181212__4
   33    35     0     0     0
SMALL
USER_CHARGES

@<TRIPOS>ATOM
      1 C1         -0.0167    1.3792    0.0096 C.ar      1 <0>        -0.0918
      2 C2          1.1700    2.0957    0.0021 C.ar      1 <0>        -0.1537
      3 C3          2.3810    1.4269   -0.0138 C.ar      1 <0>         0.1419
      4 C4          2.4026    0.0359   -0.0197 C.ar      1 <0>        -0.1576
      5 C5          1.2188   -0.6797   -0.0125 C.ar      1 <0>         0.1203
      6 C6          0.0021   -0.0041    0.0020 C.ar      1 <0>         0.0541
      7 O1         -1.1659   -0.7022    0.0093 O.3       1 <0>        -0.4898
      8 O2          1.2437   -2.0393   -0.0196 O.3       1 <0>        -0.4887
      9 O3          3.5685    2.0910   -0.0280 O.3       1 <0>        -0.3000
     10 C7          3.5570    3.4687    0.3504 C.3       1 <0>         0.1113
     11 C8          4.9070    4.1099    0.0113 C.3       1 <0>        -0.1262
     12 C9          4.8534    5.5539    0.4661 C.2       1 <0>         0.2720
     13 C10         3.6178    6.3105    0.1996 C.2       1 <0>        -0.1921
     14 C11         2.4876    5.6545   -0.2205 C.2       1 <0>         0.3015
     15 C12         2.4506    4.1729   -0.4403 C.3       1 <0>        -0.1001
     16 C13         1.1038    3.6032    0.0132 C.3       1 <0>        -0.0744
     17 N1          1.3583    6.3770   -0.4459 N.pl3     1 <0>        -0.8263
     18 C14         3.5956    7.7311    0.3792 C.1       1 <0>         0.2758
     19 N2          3.5781    8.8579    0.5217 N.1       1 <0>        -0.4415
     20 N3          5.8608    6.1051    1.0701 N.2       1 <0>        -0.6822
     21 H1         -0.9607    1.9035    0.0260 H         1 <0>         0.1389
     22 H2          3.3474   -0.4874   -0.0303 H         1 <0>         0.1450
     23 H3         -1.5118   -0.8993   -0.8720 H         1 <0>         0.3921
     24 H4          1.2590   -2.4371    0.8617 H         1 <0>         0.3982
     25 H5          3.3562    3.5543    1.4183 H         1 <0>         0.0919
     26 H6          5.7071    3.5865    0.5346 H         1 <0>         0.0987
     27 H7          2.5783    3.9634   -1.5023 H         1 <0>         0.1256
     28 H8          0.3200    3.9379   -0.6664 H         1 <0>         0.0924
     29 H9          0.8832    3.9502    1.0226 H         1 <0>         0.0932
     30 H10         1.3616    7.3374   -0.3095 H         1 <0>         0.4109
     31 H11         0.5491    5.9322   -0.7432 H         1 <0>         0.4096
     32 H12         6.6663    5.5912    1.2375 H         1 <0>         0.3442
     33 H13         5.0772    4.0668   -1.0645 H         1 <0>         0.1069
@<TRIPOS>BOND
     1    1    6 ar
     2    1    2 ar
     3    1   21 1
     4    2   16 1
     5    2    3 ar
     6    3    4 ar
     7    3    9 1
     8    4    5 ar
     9    4   22 1
    10    5    6 ar
    11    5    8 1
    12    6    7 1
    13    7   23 1
    14    8   24 1
    15    9   10 1
    16   10   15 1
    17   10   11 1
    18   10   25 1
    19   11   12 1
    20   11   26 1
    21   11   33 1
    22   12   13 1
    23   12   20 2
    24   13   14 2
    25   13   18 1
    26   14   15 1
    27   14   17 1
    28   15   16 1
    29   15   27 1
    30   16   28 1
    31   16   29 1
    32   17   30 1
    33   17   31 1
    34   18   19 3
    35   20   32 1
@<TRIPOS>MOLECULE
CHEMBL181212__5
   33    35     0     0     0
SMALL
USER_CHARGES

@<TRIPOS>ATOM
      1 C1         -0.0167    1.3792    0.0096 C.ar      1 <0>        -0.0919
      2 C2          1.1699    2.0957    0.0021 C.ar      1 <0>        -0.1565
      3 C3          2.3810    1.4267   -0.0131 C.ar      1 <0>         0.1472
      4 C4          2.4027    0.0358   -0.0212 C.ar      1 <0>        -0.1610
      5 C5          1.2187   -0.6797   -0.0146 C.ar      1 <0>         0.1195
      6 C6          0.0021   -0.0041    0.0020 C.ar      1 <0>         0.0480
      7 O1         -1.1659   -0.7022    0.0094 O.3       1 <0>        -0.4906
      8 O2          1.2436   -2.0394   -0.0236 O.3       1 <0>        -0.4896
      9 O3          3.5717    2.0895   -0.0200 O.3       1 <0>        -0.2941
     10 C7          3.5475    3.4617    0.3716 C.3       1 <0>         0.1945
     11 C8          4.8709    4.1257    0.0572 C.2       1 <0>        -0.4266
     12 C9          4.9166    5.5826    0.3051 C.2       1 <0>         0.3038
     13 C10         3.6556    6.3272    0.0550 C.2       1 <0>        -0.2249
     14 C11         2.5100    5.6483   -0.2723 C.2       1 <0>         0.3239
     15 C12         2.4520    4.1650   -0.4365 C.3       1 <0>        -0.1092
     16 C13         1.1014    3.6047    0.0104 C.3       1 <0>        -0.0736
     17 N1          1.3672    6.3628   -0.4569 N.pl3     1 <0>        -0.8291
     18 C14         3.6362    7.7554    0.1564 C.1       1 <0>         0.2553
     19 N2          3.6208    8.8885    0.2368 N.1       1 <0>        -0.4395
     20 N3          6.0051    6.1818    0.7212 N.pl3     1 <0>        -0.8034
     21 H1         -0.9607    1.9035    0.0260 H         1 <0>         0.1364
     22 H2          3.3474   -0.4875   -0.0331 H         1 <0>         0.1442
     23 H3         -1.5119   -0.8993   -0.8718 H         1 <0>         0.3902
     24 H4          1.2591   -2.4382    0.8572 H         1 <0>         0.3969
     25 H5          3.3254    3.5368    1.4361 H         1 <0>         0.0704
     26 H6          5.7200    3.5753   -0.3204 H         1 <0>         0.1343
     27 H7          2.5850    3.9234   -1.4911 H         1 <0>         0.1211
     28 H8          0.3227    3.9385   -0.6753 H         1 <0>         0.0864
     29 H9          0.8770    3.9543    1.0182 H         1 <0>         0.0890
     30 H10         1.3768    7.3275   -0.3564 H         1 <0>         0.4073
     31 H11         0.5428    5.9075   -0.6891 H         1 <0>         0.4101
     32 H12         6.8130    5.6676    0.8757 H         1 <0>         0.4129
     33 H13         6.0031    7.1396    0.8748 H         1 <0>         0.3986
@<TRIPOS>BOND
     1    1    6 ar
     2    1    2 ar
     3    1   21 1
     4    2   16 1
     5    2    3 ar
     6    3    4 ar
     7    3    9 1
     8    4    5 ar
     9    4   22 1
    10    5    6 ar
    11    5    8 1
    12    6    7 1
    13    7   23 1
    14    8   24 1
    15    9   10 1
    16   10   15 1
    17   10   11 1
    18   10   25 1
    19   11   12 1
    20   11   26 1
    21   12   13 1
    22   12   20 2
    23   13   14 2
    24   13   18 1
    25   14   15 1
    26   14   17 1
    27   15   16 1
    28   15   27 1
    29   16   28 1
    30   16   29 1
    31   17   30 1
    32   17   31 1
    33   18   19 3
    34   20   32 1
    35   20   33 1
@<TRIPOS>MOLECULE
CHEMBL181212__6
   33    35     0     0     0
SMALL
USER_CHARGES

@<TRIPOS>ATOM
      1 C1         -0.0167    1.3789    0.0096 C.ar      1 <0>        -0.0921
      2 C2          1.1703    2.0963    0.0021 C.ar      1 <0>        -0.1521
      3 C3          2.3799    1.4258   -0.0074 C.ar      1 <0>         0.1404
      4 C4          2.4022    0.0351   -0.0193 C.ar      1 <0>        -0.1572
      5 C5          1.2183   -0.6805   -0.0143 C.ar      1 <0>         0.1200
      6 C6          0.0021   -0.0041    0.0020 C.ar      1 <0>         0.0545
      7 O1         -1.1661   -0.7018    0.0110 O.3       1 <0>        -0.4904
      8 O2          1.2427   -2.0402   -0.0257 O.3       1 <0>        -0.4887
      9 O3          3.5626    2.0936    0.0061 O.3       1 <0>        -0.2900
     10 C7          3.5693    3.4768   -0.3166 C.3       1 <0>         0.1081
     11 C8          3.3776    3.6900   -1.8209 C.3       1 <0>        -0.1040
     12 C9          3.5463    5.1739   -2.0835 C.2       1 <0>         0.2723
     13 C10         2.9627    6.1134   -1.1111 C.2       1 <0>        -0.2599
     14 C11         2.4549    5.6598    0.0800 C.2       1 <0>         0.3091
     15 C12         2.4475    4.1956    0.4377 C.3       1 <0>        -0.0948
     16 C13         1.1048    3.6006   -0.0018 C.3       1 <0>        -0.0708
     17 N1          1.9436    6.5574    0.9638 N.pl3     1 <0>        -0.8235
     18 C14         2.9254    7.5131   -1.4112 C.1       1 <0>         0.2540
     19 N2          2.8958    8.6235   -1.6493 N.1       1 <0>        -0.4344
     20 N3          4.1838    5.6015   -3.1296 N.2       1 <0>        -0.6831
     21 H1         -0.9608    1.9031    0.0260 H         1 <0>         0.1380
     22 H2          3.3470   -0.4879   -0.0329 H         1 <0>         0.1453
     23 H3         -1.5134   -0.8988   -0.8698 H         1 <0>         0.3921
     24 H4          1.2579   -2.4407    0.8543 H         1 <0>         0.3976
     25 H5          4.5282    3.9075   -0.0282 H         1 <0>         0.1319
     26 H6          4.1284    3.1266   -2.3749 H         1 <0>         0.1105
     27 H7          2.5846    4.0744    1.5122 H         1 <0>         0.1195
     28 H8          0.8682    3.9484   -1.0074 H         1 <0>         0.0956
     29 H9          0.3233    3.9292    0.6834 H         1 <0>         0.0929
     30 H10         1.9415    7.5032    0.7482 H         1 <0>         0.4098
     31 H11         1.5810    6.2522    1.8101 H         1 <0>         0.4114
     32 H12         4.2820    6.5545   -3.2817 H         1 <0>         0.3377
     33 H13         2.3783    3.3711   -2.1173 H         1 <0>         0.1004
@<TRIPOS>BOND
     1    1    6 ar
     2    1    2 ar
     3    1   21 1
     4    2   16 1
     5    2    3 ar
     6    3    4 ar
     7    3    9 1
     8    4    5 ar
     9    4   22 1
    10    5    6 ar
    11    5    8 1
    12    6    7 1
    13    7   23 1
    14    8   24 1
    15    9   10 1
    16   10   15 1
    17   10   11 1
    18   10   25 1
    19   11   12 1
    20   11   26 1
    21   11   33 1
    22   12   13 1
    23   12   20 2
    24   13   14 2
    25   13   18 1
    26   14   15 1
    27   14   17 1
    28   15   16 1
    29   15   27 1
    30   16   28 1
    31   16   29 1
    32   17   30 1
    33   17   31 1
    34   18   19 3
    35   20   32 1
@<TRIPOS>MOLECULE
CHEMBL181212__7
   33    35     0     0     0
SMALL
USER_CHARGES

@<TRIPOS>ATOM
      1 C1         -0.0167    1.3789    0.0096 C.ar      1 <0>        -0.0945
      2 C2          1.1703    2.0965    0.0021 C.ar      1 <0>        -0.1455
      3 C3          2.3798    1.4260   -0.0075 C.ar      1 <0>         0.1538
      4 C4          2.4022    0.0353   -0.0218 C.ar      1 <0>        -0.1640
      5 C5          1.2183   -0.6805   -0.0167 C.ar      1 <0>         0.1168
      6 C6          0.0021   -0.0041    0.0020 C.ar      1 <0>         0.0472
      7 O1         -1.1661   -0.7019    0.0128 O.3       1 <0>        -0.4914
      8 O2          1.2428   -2.0401   -0.0294 O.3       1 <0>        -0.4901
      9 O3          3.5607    2.0948    0.0135 O.3       1 <0>        -0.2939
     10 C7          3.5804    3.4829   -0.2590 C.3       1 <0>         0.1899
     11 C8          3.4666    3.7657   -1.7404 C.2       1 <0>        -0.4493
     12 C9          3.5033    5.2019   -2.0970 C.2       1 <0>         0.2964
     13 C10         2.9121    6.1314   -1.1004 C.2       1 <0>        -0.2211
     14 C11         2.4384    5.6625    0.0952 C.2       1 <0>         0.3147
     15 C12         2.4381    4.2009    0.4622 C.3       1 <0>        -0.0985
     16 C13         1.1061    3.5998   -0.0025 C.3       1 <0>        -0.0592
     17 N1          1.9452    6.5571    0.9935 N.pl3     1 <0>        -0.8277
     18 C14         2.8375    7.5312   -1.3931 C.1       1 <0>         0.2533
     19 N2          2.7783    8.6416   -1.6252 N.1       1 <0>        -0.4396
     20 N3          4.0251    5.6269   -3.2214 N.pl3     1 <0>        -0.8054
     21 H1         -0.9609    1.9029    0.0260 H         1 <0>         0.1347
     22 H2          3.3471   -0.4875   -0.0374 H         1 <0>         0.1421
     23 H3         -1.5147   -0.8988   -0.8674 H         1 <0>         0.3893
     24 H4          1.2587   -2.4414    0.8502 H         1 <0>         0.3955
     25 H5          4.5275    3.8947    0.0899 H         1 <0>         0.1070
     26 H6          3.3673    2.9833   -2.4782 H         1 <0>         0.1287
     27 H7          2.5505    4.0884    1.5405 H         1 <0>         0.1065
     28 H8          0.8886    3.9467   -1.0126 H         1 <0>         0.0951
     29 H9          0.3113    3.9272    0.6677 H         1 <0>         0.0812
     30 H10         1.9348    7.5033    0.7800 H         1 <0>         0.4071
     31 H11         1.6039    6.2489    1.8476 H         1 <0>         0.4115
     32 H12         4.4034    4.9930   -3.8507 H         1 <0>         0.4122
     33 H13         4.0331    6.5754   -3.4244 H         1 <0>         0.3973
@<TRIPOS>BOND
     1    1    6 ar
     2    1    2 ar
     3    1   21 1
     4    2   16 1
     5    2    3 ar
     6    3    4 ar
     7    3    9 1
     8    4    5 ar
     9    4   22 1
    10    5    6 ar
    11    5    8 1
    12    6    7 1
    13    7   23 1
    14    8   24 1
    15    9   10 1
    16   10   15 1
    17   10   11 1
    18   10   25 1
    19   11   12 1
    20   11   26 1
    21   12   13 1
    22   12   20 2
    23   13   14 2
    24   13   18 1
    25   14   15 1
    26   14   17 1
    27   15   16 1
    28   15   27 1
    29   16   28 1
    30   16   29 1
    31   17   30 1
    32   17   31 1
    33   18   19 3
    34   20   32 1
    35   20   33 1
@<TRIPOS>MOLECULE
CHEMBL455156
   51    55     0     0     0
SMALL
USER_CHARGES

@<TRIPOS>ATOM
      1 C1         -0.0167    1.3791    0.0032 C.ar      1 <0>        -0.1244
      2 C2          1.1666    2.0881   -0.0023 C.ar      1 <0>        -0.0514
      3 C3          2.3849    1.4067   -0.0163 C.ar      1 <0>        -0.1430
      4 C4          2.3967    0.0109   -0.0246 C.ar      1 <0>        -0.0848
      5 C5          1.2062   -0.6860   -0.0189 C.ar      1 <0>        -0.1220
      6 C6          0.0021   -0.0044   -0.0051 C.ar      1 <0>        -0.0417
      7 C7         -1.2945   -0.7723    0.0016 C.3       1 <0>        -0.0607
      8 C8         -1.3383   -1.7249    1.2142 C.3       1 <0>        -0.1179
      9 C9         -2.0499   -2.9914    0.6768 C.3       1 <0>        -0.1267
     10 C10        -1.4893   -3.1139   -0.7619 C.3       1 <0>        -0.1259
     11 C11        -1.3905   -1.6555   -1.2549 C.3       1 <0>        -0.1182
     12 C12         3.6566    2.1599   -0.0229 C.2       1 <0>         0.5515
     13 O1          3.6432    3.3754   -0.0161 O.2       1 <0>        -0.4620
     14 N1          4.8311    1.4990   -0.0364 N.am      1 <0>        -0.6604
     15 C13         6.0270    2.2056   -0.1497 C.ar      1 <0>         0.3743
     16 C14         7.2237    1.5139   -0.2689 C.ar      1 <0>        -0.2136
     17 C15         8.4145    2.2375   -0.3821 C.ar      1 <0>         0.0588
     18 C16         8.3430    3.6378   -0.3697 C.ar      1 <0>        -0.1867
     19 C17         7.1130    4.2456   -0.2476 C.ar      1 <0>         0.1466
     20 N2          6.0077    3.5301   -0.1478 N.ar      1 <0>        -0.4777
     21 C18         9.7134    1.5453   -0.5108 C.2       1 <0>         0.0610
     22 C19        10.9236    2.1526   -0.6208 C.2       1 <0>        -0.0768
     23 C20        11.8977    1.1373   -0.7203 C.2       1 <0>        -0.2661
     24 C21        11.2240   -0.0929   -0.6657 C.2       1 <0>         0.2977
     25 N3          9.8939    0.1780   -0.5327 N.pl3     1 <0>        -0.5265
     26 H1          9.1882   -0.4842   -0.4665 H         1 <0>         0.4236
     27 N4         11.9350   -1.2283   -0.7408 N.2       1 <0>        -0.5298
     28 C22        13.2305   -1.2225   -0.8630 C.2       1 <0>         0.3979
     29 N5         13.9634   -0.0826   -0.9234 N.am      1 <0>        -0.6511
     30 H2         14.9278   -0.1321   -1.0147 H         1 <0>         0.4247
     31 C23        13.3527    1.1237   -0.8576 C.2       1 <0>         0.5657
     32 O2         13.9923    2.1596   -0.9101 O.2       1 <0>        -0.5165
     33 H3         -0.9599    1.9050    0.0186 H         1 <0>         0.1315
     34 H4          1.1505    3.1680    0.0038 H         1 <0>         0.1383
     35 H5          3.3359   -0.5223   -0.0358 H         1 <0>         0.1234
     36 H6          1.2139   -1.7659   -0.0256 H         1 <0>         0.1301
     37 H7         -2.1370   -0.0817    0.0377 H         1 <0>         0.0836
     38 H8         -0.3286   -1.9665    1.5462 H         1 <0>         0.0705
     39 H9         -1.9124   -1.2809    2.0275 H         1 <0>         0.0686
     40 H10        -1.7835   -3.8656    1.2709 H         1 <0>         0.0680
     41 H11        -3.1305   -2.8494    0.6596 H         1 <0>         0.0685
     42 H12        -0.5040   -3.5798   -0.7490 H         1 <0>         0.0652
     43 H13        -2.1735   -3.6836   -1.3907 H         1 <0>         0.0669
     44 H14        -2.2800   -1.3940   -1.8280 H         1 <0>         0.0681
     45 H15        -0.4992   -1.5287   -1.8694 H         1 <0>         0.0678
     46 H16         4.8441    0.5316    0.0327 H         1 <0>         0.4158
     47 H17         7.2352    0.4340   -0.2738 H         1 <0>         0.1302
     48 H18         9.2407    4.2321   -0.4545 H         1 <0>         0.1451
     49 H19         7.0513    5.3238   -0.2371 H         1 <0>         0.1674
     50 H20        11.1063    3.2170   -0.6306 H         1 <0>         0.1589
     51 H21        13.7465   -2.1696   -0.9184 H         1 <0>         0.2146
@<TRIPOS>BOND
     1    1    6 ar
     2    1    2 ar
     3    1   33 1
     4    2    3 ar
     5    2   34 1
     6    3    4 ar
     7    3   12 1
     8    4    5 ar
     9    4   35 1
    10    5    6 ar
    11    5   36 1
    12    6    7 1
    13    7   11 1
    14    7    8 1
    15    7   37 1
    16    8    9 1
    17    8   38 1
    18    8   39 1
    19    9   10 1
    20    9   40 1
    21    9   41 1
    22   10   11 1
    23   10   42 1
    24   10   43 1
    25   11   44 1
    26   11   45 1
    27   12   13 2
    28   12   14 am
    29   14   15 1
    30   14   46 1
    31   15   20 ar
    32   15   16 ar
    33   16   17 ar
    34   16   47 1
    35   17   18 ar
    36   17   21 1
    37   18   19 ar
    38   18   48 1
    39   19   20 ar
    40   19   49 1
    41   21   25 1
    42   21   22 2
    43   22   23 1
    44   22   50 1
    45   23   31 1
    46   23   24 2
    47   24   25 1
    48   24   27 1
    49   25   26 1
    50   27   28 2
    51   28   29 1
    52   28   51 1
    53   29   30 1
    54   29   31 am
    55   31   32 2
@<TRIPOS>MOLECULE
CHEMBL455396
   37    40     0     0     0
SMALL
USER_CHARGES

@<TRIPOS>ATOM
      1 C1         -0.0173    1.4248    0.0099 C.3       1 <0>         0.0181
      2 O1          0.0021   -0.0041    0.0020 O.3       1 <0>        -0.2659
      3 C2          0.5643   -0.5578    0.9390 C.ar      1 <0>         0.1882
      4 C3          1.1488    0.2101    1.9628 C.ar      1 <0>        -0.2709
      5 C4          1.7730   -0.4063    3.0029 C.ar      1 <0>        -0.0501
      6 C5          1.8345   -1.8082    3.0546 C.ar      1 <0>        -0.1257
      7 C6          1.2520   -2.5760    2.0333 C.ar      1 <0>        -0.0279
      8 C7          0.6212   -1.9625    0.9954 C.ar      1 <0>        -0.1901
      9 C8          2.5089   -2.4720    4.1776 C.2       1 <0>         0.1545
     10 C9          2.5749   -3.8640    4.2259 C.2       1 <0>        -0.1294
     11 C10         3.2231   -4.4752    5.3055 C.2       1 <0>         0.0309
     12 C11         3.7885   -3.6623    6.3093 C.2       1 <0>        -0.1691
     13 C12         3.6973   -2.3145    6.2159 C.2       1 <0>         0.0889
     14 N1          3.0737   -1.7279    5.1669 N.pl3     1 <0>        -0.5937
     15 C13         3.3129   -5.9448    5.3919 C.2       1 <0>         0.0295
     16 C14         3.9668   -6.7047    6.4862 C.2       1 <0>        -0.0884
     17 C15         3.8221   -8.0189    6.1765 C.2       1 <0>        -0.3339
     18 C16         3.0812   -8.0708    4.8949 C.2       1 <0>         0.3545
     19 N2          2.8220   -6.7908    4.5157 N.2       1 <0>        -0.5550
     20 N3          2.8189   -9.2576    4.3885 N.2       1 <0>        -0.6473
     21 C17         3.2017  -10.3794    4.9990 C.2       1 <0>         0.3871
     22 N4          3.8551  -10.4291    6.1249 N.2       1 <0>        -0.6995
     23 C18         4.2095   -9.3020    6.7866 C.2       1 <0>         0.5456
     24 O2          4.8206   -9.3475    7.8383 O.2       1 <0>        -0.5652
     25 H1          1.0053    1.8021    0.0021 H         1 <0>         0.0687
     26 H2         -0.5445    1.7859   -0.8732 H         1 <0>         0.1064
     27 H3         -0.5275    1.7763    0.9067 H         1 <0>         0.0687
     28 H4          1.1024    1.2884    1.9229 H         1 <0>         0.1323
     29 H5          2.2218    0.1830    3.7889 H         1 <0>         0.1156
     30 H6          1.3003   -3.6542    2.0742 H         1 <0>         0.1438
     31 H7          0.1691   -2.5534    0.2125 H         1 <0>         0.1379
     32 H8          2.1323   -4.4614    3.4425 H         1 <0>         0.1515
     33 H9          4.2927   -4.1136    7.1510 H         1 <0>         0.1414
     34 H10         4.1325   -1.6976    6.9882 H         1 <0>         0.1607
     35 H11         4.4596   -6.2943    7.3552 H         1 <0>         0.1212
     36 H12         2.9511  -11.3168    4.5249 H         1 <0>         0.1579
     37 H13         3.0257   -0.7601    5.1217 H         1 <0>         0.4086
@<TRIPOS>BOND
     1    1    2 1
     2    1   25 1
     3    1   26 1
     4    1   27 1
     5    2    3 1
     6    3    8 ar
     7    3    4 ar
     8    4    5 ar
     9    4   28 1
    10    5    6 ar
    11    5   29 1
    12    6    7 ar
    13    6    9 1
    14    7    8 ar
    15    7   30 1
    16    8   31 1
    17    9   14 1
    18    9   10 2
    19   10   11 1
    20   10   32 1
    21   11   12 1
    22   11   15 1
    23   12   13 2
    24   12   33 1
    25   13   14 1
    26   13   34 1
    27   14   37 1
    28   15   19 2
    29   15   16 1
    30   16   17 2
    31   16   35 1
    32   17   23 1
    33   17   18 1
    34   18   19 1
    35   18   20 2
    36   20   21 1
    37   21   22 2
    38   21   36 1
    39   22   23 1
    40   23   24 2
@<TRIPOS>MOLECULE
CHEMBL455396__1
   38    41     0     0     0
SMALL
USER_CHARGES

@<TRIPOS>ATOM
      1 C1         -0.0173    1.4248    0.0099 C.3       1 <0>         0.0248
      2 O1          0.0021   -0.0041    0.0020 O.3       1 <0>        -0.3152
      3 C2         -1.1998   -0.6372    0.0101 C.ar      1 <0>         0.1427
      4 C3         -2.3736    0.1045    0.0196 C.ar      1 <0>        -0.2140
      5 C4         -3.5949   -0.5352    0.0282 C.ar      1 <0>        -0.0334
      6 C5         -3.6506   -1.9283    0.0270 C.ar      1 <0>        -0.0949
      7 C6         -2.4703   -2.6702    0.0170 C.ar      1 <0>        -0.0592
      8 C7         -1.2520   -2.0248    0.0031 C.ar      1 <0>        -0.1551
      9 C8         -4.9626   -2.6194    0.0368 C.ar      1 <0>         0.1912
     10 C9         -5.0083   -4.0093    0.0413 C.ar      1 <0>        -0.1722
     11 C10        -6.2539   -4.6442    0.0505 C.ar      1 <0>         0.0364
     12 C11        -7.4057   -3.8448    0.0549 C.ar      1 <0>        -0.1634
     13 C12        -7.2722   -2.4725    0.0500 C.ar      1 <0>         0.1211
     14 N1         -6.0817   -1.9049    0.0467 N.ar      1 <0>        -0.4838
     15 C13        -6.3538   -6.1182    0.0550 C.2       1 <0>         0.0608
     16 C14        -7.5106   -6.8307    0.0585 C.2       1 <0>        -0.0793
     17 C15        -7.1638   -8.1979    0.0617 C.2       1 <0>        -0.2659
     18 C16        -5.7622   -8.2722    0.0600 C.2       1 <0>         0.2981
     19 N2         -5.2878   -6.9934    0.0504 N.pl3     1 <0>        -0.5266
     20 H1         -4.3514   -6.7403    0.0437 H         1 <0>         0.4240
     21 N3         -5.1742   -9.4782    0.0624 N.2       1 <0>        -0.5292
     22 C17        -5.8651  -10.5809    0.0662 C.2       1 <0>         0.3977
     23 N4         -7.2213  -10.6048    0.0681 N.am      1 <0>        -0.6510
     24 H2         -7.6900  -11.4541    0.0710 H         1 <0>         0.4247
     25 C18        -7.9227   -9.4470    0.0656 C.2       1 <0>         0.5657
     26 O2         -9.1414   -9.4462    0.0676 O.2       1 <0>        -0.5172
     27 H3          1.0053    1.8021    0.0021 H         1 <0>         0.1027
     28 H4         -0.5445    1.7859   -0.8732 H         1 <0>         0.0581
     29 H5         -0.5275    1.7763    0.9067 H         1 <0>         0.0581
     30 H6         -2.3299    1.1837    0.0205 H         1 <0>         0.1334
     31 H7         -4.5076    0.0422    0.0363 H         1 <0>         0.1401
     32 H8         -2.5103   -3.7495    0.0165 H         1 <0>         0.1309
     33 H9         -0.3374   -2.5990   -0.0090 H         1 <0>         0.1362
     34 H10        -4.0968   -4.5886    0.0373 H         1 <0>         0.1313
     35 H11        -8.3857   -4.2985    0.0617 H         1 <0>         0.1442
     36 H12        -8.1566   -1.8526    0.0530 H         1 <0>         0.1653
     37 H13        -8.5115   -6.4249    0.0587 H         1 <0>         0.1581
     38 H14        -5.3338  -11.5212    0.0677 H         1 <0>         0.2148
@<TRIPOS>BOND
     1    1    2 1
     2    1   27 1
     3    1   28 1
     4    1   29 1
     5    2    3 1
     6    3    8 ar
     7    3    4 ar
     8    4    5 ar
     9    4   30 1
    10    5    6 ar
    11    5   31 1
    12    6    7 ar
    13    6    9 1
    14    7    8 ar
    15    7   32 1
    16    8   33 1
    17    9   14 ar
    18    9   10 ar
    19   10   11 ar
    20   10   34 1
    21   11   12 ar
    22   11   15 1
    23   12   13 ar
    24   12   35 1
    25   13   14 ar
    26   13   36 1
    27   15   19 1
    28   15   16 2
    29   16   17 1
    30   16   37 1
    31   17   25 1
    32   17   18 2
    33   18   19 1
    34   18   21 1
    35   19   20 1
    36   21   22 2
    37   22   23 1
    38   22   38 1
    39   23   24 1
    40   23   25 am
    41   25   26 2
@<TRIPOS>MOLECULE
CHEMBL557101
   49    55     0     0     0
SMALL
USER_CHARGES

@<TRIPOS>ATOM
      1 C1         -0.0184    1.5028    0.0103 C.3       1 <0>        -0.2094
      2 C2          0.0021   -0.0041    0.0020 C.2       1 <0>         0.3951
      3 O1          0.0203   -0.6163    1.0494 O.2       1 <0>        -0.4482
      4 C3         -0.0001   -0.7285   -1.2686 C.2       1 <0>        -0.2091
      5 C4          0.0121   -2.0537   -1.3018 C.2       1 <0>        -0.0614
      6 C5          0.0098   -2.7205   -2.6522 C.3       1 <0>         0.1175
      7 N1         -1.3640   -3.0104   -3.0700 N.pl3     1 <0>        -0.4936
      8 C6         -1.8607   -4.2807   -3.2440 C.ar      1 <0>         0.1487
      9 C7         -1.2567   -5.5255   -3.0694 C.ar      1 <0>        -0.1465
     10 C8         -2.0322   -6.6420   -3.3364 C.ar      1 <0>        -0.0716
     11 C9         -3.3472   -6.5449   -3.7568 C.ar      1 <0>        -0.1535
     12 C10        -3.9685   -5.3197   -3.9348 C.ar      1 <0>        -0.0385
     13 C11        -3.1999   -4.1847   -3.6697 C.ar      1 <0>        -0.1115
     14 C12        -3.5088   -2.7576   -3.7419 C.ar      1 <0>        -0.0087
     15 C13        -2.3419   -2.0622   -3.3588 C.ar      1 <0>         0.1480
     16 C14        -2.3556   -0.6613   -3.3223 C.ar      1 <0>         0.1491
     17 C15        -3.5344    0.0303   -3.6750 C.ar      1 <0>        -0.0096
     18 C16        -3.2520    1.4576   -3.5325 C.ar      1 <0>        -0.1110
     19 C17        -4.0394    2.5902   -3.7480 C.ar      1 <0>        -0.0367
     20 C18        -3.4419    3.8162   -3.5058 C.ar      1 <0>        -0.1541
     21 C19        -2.1314    3.9165   -3.0724 C.ar      1 <0>        -0.0698
     22 C20        -1.3368    2.8025   -2.8557 C.ar      1 <0>        -0.1528
     23 C21        -1.9169    1.5572   -3.0952 C.ar      1 <0>         0.1486
     24 N2         -1.3961    0.2891   -2.9849 N.pl3     1 <0>        -0.4929
     25 C22        -0.0226    0.0057   -2.5832 C.3       1 <0>         0.1373
     26 C23        -4.6863   -0.6647   -4.0656 C.ar      1 <0>        -0.1108
     27 C24        -4.6735   -2.0660   -4.0991 C.ar      1 <0>        -0.1111
     28 C25        -6.0182   -2.4754   -4.5419 C.2       1 <0>         0.5855
     29 O2         -6.3984   -3.6196   -4.6924 O.2       1 <0>        -0.4586
     30 N3         -6.7542   -1.3685   -4.7507 N.am      1 <0>        -0.6807
     31 C26        -6.0383   -0.2594   -4.4898 C.2       1 <0>         0.5856
     32 O3         -6.4387    0.8836   -4.5884 O.2       1 <0>        -0.4588
     33 H1          1.0042    1.8801    0.0026 H         1 <0>         0.1027
     34 H2         -0.5455    1.8639   -0.8728 H         1 <0>         0.0885
     35 H3         -0.5286    1.8543    0.9071 H         1 <0>         0.0931
     36 H4          0.0229   -2.6352   -0.3918 H         1 <0>         0.1476
     37 H5          0.4775   -2.0598   -3.3821 H         1 <0>         0.1010
     38 H6          0.5745   -3.6512   -2.5965 H         1 <0>         0.1172
     39 H7         -0.2316   -5.6150   -2.7415 H         1 <0>         0.1340
     40 H8         -1.5954   -7.6219   -3.2125 H         1 <0>         0.1287
     41 H9         -3.9043   -7.4493   -3.9518 H         1 <0>         0.1279
     42 H10        -4.9950   -5.2461   -4.2622 H         1 <0>         0.1520
     43 H11        -5.0621    2.5143   -4.0867 H         1 <0>         0.1519
     44 H12        -4.0145    4.7189   -3.6597 H         1 <0>         0.1278
     45 H13        -1.7138    4.8969   -2.8968 H         1 <0>         0.1290
     46 H14        -0.3155    2.8943   -2.5170 H         1 <0>         0.1354
     47 H15         0.5199    0.9457   -2.4815 H         1 <0>         0.1132
     48 H16         0.4578   -0.6058   -3.3469 H         1 <0>         0.1014
     49 H17        -7.6776   -1.3698   -5.0479 H         1 <0>         0.4321
@<TRIPOS>BOND
     1    1    2 1
     2    1   33 1
     3    1   34 1
     4    1   35 1
     5    2    3 2
     6    2    4 1
     7    4   25 1
     8    4    5 2
     9    5    6 1
    10    5   36 1
    11    6    7 1
    12    6   37 1
    13    6   38 1
    14    7   15 1
    15    7    8 1
    16    8   13 ar
    17    8    9 ar
    18    9   10 ar
    19    9   39 1
    20   10   11 ar
    21   10   40 1
    22   11   12 ar
    23   11   41 1
    24   12   13 ar
    25   12   42 1
    26   13   14 1
    27   14   27 ar
    28   14   15 ar
    29   15   16 ar
    30   16   24 1
    31   16   17 ar
    32   17   18 1
    33   17   26 ar
    34   18   23 ar
    35   18   19 ar
    36   19   20 ar
    37   19   43 1
    38   20   21 ar
    39   20   44 1
    40   21   22 ar
    41   21   45 1
    42   22   23 ar
    43   22   46 1
    44   23   24 1
    45   24   25 1
    46   25   47 1
    47   25   48 1
    48   26   31 1
    49   26   27 ar
    50   27   28 1
    51   28   29 2
    52   28   30 am
    53   30   31 am
    54   30   49 1
    55   31   32 2
@<TRIPOS>MOLECULE
CHEMBL589650
   43    47     0     0     0
SMALL
USER_CHARGES

@<TRIPOS>ATOM
      1 C1         -0.0992    0.6600    0.8140 C.ar      1 <0>        -0.1144
      2 C2          1.0671    1.4094    0.9570 C.ar      1 <0>        -0.1137
      3 C3          2.2915    0.8334    0.8117 C.ar      1 <0>        -0.1063
      4 C4          2.3847   -0.5377    0.5130 C.ar      1 <0>        -0.0479
      5 C5          3.6312   -1.1635    0.3577 C.ar      1 <0>        -0.0890
      6 C6          3.6824   -2.5140    0.0651 C.ar      1 <0>        -0.0413
      7 C7          2.4999   -3.2591   -0.0774 C.ar      1 <0>        -0.1136
      8 C8          1.2845   -2.6716    0.0687 C.ar      1 <0>        -0.0978
      9 C9          1.1980   -1.2998    0.3675 C.ar      1 <0>        -0.0515
     10 C10        -0.0476   -0.6692    0.5250 C.ar      1 <0>        -0.1064
     11 C11         4.9958   -3.1809   -0.1001 C.ar      1 <0>        -0.0546
     12 C12         5.9580   -2.6280   -0.9327 C.ar      1 <0>        -0.0760
     13 C13         7.1944   -3.2487   -1.0925 C.ar      1 <0>         0.1176
     14 C14         7.4802   -4.4237   -0.4242 C.ar      1 <0>        -0.0257
     15 C15         6.5216   -4.9964    0.4201 C.ar      1 <0>        -0.1600
     16 C16         5.2733   -4.3712    0.5894 C.ar      1 <0>         0.1337
     17 N1          4.5579   -5.1462    1.4639 N.pl3     1 <0>        -0.5066
     18 H1          3.6548   -4.9646    1.7677 H         1 <0>         0.4394
     19 N2          5.3383   -6.2414    1.8480 N.2       1 <0>        -0.2449
     20 C17         6.4956   -6.1960    1.2518 C.2       1 <0>         0.0787
     21 N3          8.1548   -2.6780   -1.9370 N.pl3     1 <0>        -0.6498
     22 C18         9.4971   -2.7318   -1.5960 C.ar      1 <0>         0.4690
     23 C19        10.4732   -2.2771   -2.4859 C.ar      1 <0>        -0.3385
     24 C20        11.7981   -2.3495   -2.1036 C.ar      1 <0>         0.2185
     25 N4         12.1033   -2.8445   -0.9128 N.ar      1 <0>        -0.6037
     26 C21        11.1567   -3.2686   -0.0887 C.ar      1 <0>         0.6011
     27 N5          9.8743   -3.2118   -0.4152 N.ar      1 <0>        -0.6139
     28 N6         11.5165   -3.7794    1.1463 N.pl3     1 <0>        -0.8204
     29 H2         -1.0585    1.1403    0.9387 H         1 <0>         0.1245
     30 H3          0.9983    2.4626    1.1860 H         1 <0>         0.1247
     31 H4          3.1871    1.4263    0.9249 H         1 <0>         0.1280
     32 H5          4.5430   -0.5949    0.4655 H         1 <0>         0.1305
     33 H6          2.5584   -4.3129   -0.3065 H         1 <0>         0.1216
     34 H7          0.3844   -3.2575   -0.0446 H         1 <0>         0.1302
     35 H8         -0.9602   -1.2366    0.4176 H         1 <0>         0.1280
     36 H9          5.7466   -1.7099   -1.4609 H         1 <0>         0.1342
     37 H10         8.4410   -4.8996   -0.5533 H         1 <0>         0.1379
     38 H11         7.2968   -6.9118    1.3618 H         1 <0>         0.1980
     39 H12         7.8805   -2.2450   -2.7605 H         1 <0>         0.4221
     40 H13        10.1978   -1.8783   -3.4510 H         1 <0>         0.1412
     41 H14        12.5774   -2.0068   -2.7682 H         1 <0>         0.1679
     42 H15        12.4520   -3.8234    1.3990 H         1 <0>         0.4157
     43 H16        10.8332   -4.0933    1.7590 H         1 <0>         0.4135
@<TRIPOS>BOND
     1    1   10 ar
     2    1    2 ar
     3    1   29 1
     4    2    3 ar
     5    2   30 1
     6    3    4 ar
     7    3   31 1
     8    4    9 ar
     9    4    5 ar
    10    5    6 ar
    11    5   32 1
    12    6    7 ar
    13    6   11 1
    14    7    8 ar
    15    7   33 1
    16    8    9 ar
    17    8   34 1
    18    9   10 ar
    19   10   35 1
    20   11   16 ar
    21   11   12 ar
    22   12   13 ar
    23   12   36 1
    24   13   14 ar
    25   13   21 1
    26   14   15 ar
    27   14   37 1
    28   15   20 1
    29   15   16 ar
    30   16   17 1
    31   17   18 1
    32   17   19 1
    33   19   20 2
    34   20   38 1
    35   21   22 1
    36   21   39 1
    37   22   27 ar
    38   22   23 ar
    39   23   24 ar
    40   23   40 1
    41   24   25 ar
    42   24   41 1
    43   25   26 ar
    44   26   27 ar
    45   26   28 1
    46   28   42 1
    47   28   43 1
@<TRIPOS>MOLECULE
CHEMBL589650__1
   44    48     0     0     0
SMALL
USER_CHARGES

@<TRIPOS>ATOM
      1 C1          0.8183    2.7045    0.0787 C.ar      1 <0>        -0.1117
      2 C2          2.0987    3.2423   -0.0386 C.ar      1 <0>        -0.1119
      3 C3          3.1963    2.4381   -0.0628 C.ar      1 <0>        -0.1096
      4 C4          3.0396    1.0436    0.0319 C.ar      1 <0>        -0.0517
      5 C5          4.1498    0.1858    0.0108 C.ar      1 <0>        -0.0908
      6 C6          3.9556   -1.1811    0.1067 C.ar      1 <0>        -0.0417
      7 C7          2.6591   -1.7116    0.2240 C.ar      1 <0>        -0.0918
      8 C8          1.5731   -0.8975    0.2462 C.ar      1 <0>        -0.1008
      9 C9          1.7368    0.4967    0.1512 C.ar      1 <0>        -0.0468
     10 C10         0.6285    1.3597    0.1725 C.ar      1 <0>        -0.1067
     11 C11         5.1224   -2.0918    0.0850 C.ar      1 <0>         0.0031
     12 C12         6.0867   -1.9758   -0.8950 C.ar      1 <0>        -0.0669
     13 C13         7.1949   -2.8271   -0.9299 C.ar      1 <0>         0.0786
     14 C14         7.3875   -3.8116   -0.0088 C.ar      1 <0>        -0.0325
     15 C15         6.4552   -4.0084    1.0318 C.ar      1 <0>        -0.2073
     16 C16         5.2784   -3.1292    1.1070 C.ar      1 <0>         0.1134
     17 N1          4.5803   -3.5113    2.1567 N.2       1 <0>        -0.2798
     18 H1          4.9235   -5.0454    3.5669 H         1 <0>         0.4517
     19 N2          5.2356   -4.5838    2.7730 N.pl3     1 <0>        -0.4202
     20 C17         6.3529   -4.8867    2.0948 C.2       1 <0>         0.1074
     21 N3          8.1408   -2.6621   -1.9489 N.pl3     1 <0>        -0.5914
     22 C18         7.7376   -2.2460   -3.2080 C.ar      1 <0>         0.5121
     23 C19         8.6825   -1.9609   -4.1965 C.ar      1 <0>        -0.2636
     24 C20         8.2349   -1.5500   -5.4366 C.ar      1 <0>         0.2129
     25 N4          6.9320   -1.4389   -5.6515 N.ar      1 <0>        -0.5752
     26 C21         6.0579   -1.7159   -4.6954 C.ar      1 <0>         0.6591
     27 N5          6.4459   -2.1178   -3.4943 N.ar      1 <0>        -0.5630
     28 N6          4.7055   -1.5870   -4.9595 N.pl3     1 <0>        -0.7917
     29 H2         -0.0359    3.3649    0.1000 H         1 <0>         0.1263
     30 H3          2.2215    4.3128   -0.1119 H         1 <0>         0.1255
     31 H4          4.1825    2.8685   -0.1545 H         1 <0>         0.1260
     32 H5          5.1476    0.5889   -0.0799 H         1 <0>         0.1256
     33 H6          2.5253   -2.7808    0.2970 H         1 <0>         0.1232
     34 H7          0.5833   -1.3200    0.3364 H         1 <0>         0.1303
     35 H8         -0.3700    0.9580    0.2632 H         1 <0>         0.1294
     36 H9          5.9829   -1.2116   -1.6511 H         1 <0>         0.1403
     37 H10         8.2591   -4.4458   -0.0754 H         1 <0>         0.1345
     38 H11         7.0546   -5.6694    2.3426 H         1 <0>         0.1964
     39 H12         9.0783   -2.8389   -1.7737 H         1 <0>         0.4372
     40 H13         9.7390   -2.0592   -3.9954 H         1 <0>         0.1870
     41 H14         8.9392   -1.3213   -6.2227 H         1 <0>         0.2163
     42 H15         4.4081   -1.2968   -5.8360 H         1 <0>         0.4300
     43 H16         4.0551   -1.7867   -4.2681 H         1 <0>         0.4450
     44 H17         6.6138   -1.1502   -6.5212 H         1 <0>         0.4435
@<TRIPOS>BOND
     1    1   10 ar
     2    1    2 ar
     3    1   29 1
     4    2    3 ar
     5    2   30 1
     6    3    4 ar
     7    3   31 1
     8    4    9 ar
     9    4    5 ar
    10    5    6 ar
    11    5   32 1
    12    6    7 ar
    13    6   11 1
    14    7    8 ar
    15    7   33 1
    16    8    9 ar
    17    8   34 1
    18    9   10 ar
    19   10   35 1
    20   11   16 ar
    21   11   12 ar
    22   12   13 ar
    23   12   36 1
    24   13   14 ar
    25   13   21 1
    26   14   15 ar
    27   14   37 1
    28   15   16 ar
    29   15   20 2
    30   16   17 2
    31   17   19 1
    32   18   19 1
    33   19   20 1
    34   20   38 1
    35   21   22 1
    36   21   39 1
    37   22   27 ar
    38   22   23 ar
    39   23   24 ar
    40   23   40 1
    41   24   25 ar
    42   24   41 1
    43   25   26 ar
    44   25   44 1
    45   26   27 ar
    46   26   28 1
    47   28   42 1
    48   28   43 1
@<TRIPOS>MOLECULE
CHEMBL589650__2
   44    48     0     0     0
SMALL
USER_CHARGES

@<TRIPOS>ATOM
      1 C1         -0.0992    0.6601    0.8140 C.ar      1 <0>        -0.1087
      2 C2          1.0672    1.4094    0.9570 C.ar      1 <0>        -0.1084
      3 C3          2.2915    0.8334    0.8117 C.ar      1 <0>        -0.1088
      4 C4          2.3847   -0.5376    0.5130 C.ar      1 <0>        -0.0501
      5 C5          3.6312   -1.1635    0.3577 C.ar      1 <0>        -0.0826
      6 C6          3.6824   -2.5140    0.0651 C.ar      1 <0>        -0.0579
      7 C7          2.4999   -3.2591   -0.0774 C.ar      1 <0>        -0.1177
      8 C8          1.2845   -2.6716    0.0687 C.ar      1 <0>        -0.0910
      9 C9          1.1980   -1.2998    0.3675 C.ar      1 <0>        -0.0478
     10 C10        -0.0476   -0.6692    0.5250 C.ar      1 <0>        -0.1062
     11 C11         4.9958   -3.1809   -0.1001 C.ar      1 <0>        -0.0359
     12 C12         5.9580   -2.6280   -0.9327 C.ar      1 <0>        -0.0668
     13 C13         7.1944   -3.2487   -1.0925 C.ar      1 <0>         0.0693
     14 C14         7.4802   -4.4237   -0.4242 C.ar      1 <0>        -0.0139
     15 C15         6.5216   -4.9964    0.4201 C.ar      1 <0>        -0.1654
     16 C16         5.2733   -4.3712    0.5894 C.ar      1 <0>         0.1500
     17 N1          4.5579   -5.1462    1.4639 N.pl3     1 <0>        -0.4966
     18 H1          3.6548   -4.9646    1.7677 H         1 <0>         0.4457
     19 N2          5.3383   -6.2414    1.8480 N.2       1 <0>        -0.2315
     20 C17         6.4956   -6.1960    1.2518 C.2       1 <0>         0.0800
     21 N3          8.1548   -2.6780   -1.9370 N.pl3     1 <0>        -0.5891
     22 C18         9.4971   -2.7318   -1.5960 C.ar      1 <0>         0.5130
     23 C19        10.4732   -2.2771   -2.4859 C.ar      1 <0>        -0.2631
     24 C20        11.7981   -2.3495   -2.1036 C.ar      1 <0>         0.2141
     25 N4         12.1033   -2.8445   -0.9128 N.ar      1 <0>        -0.5749
     26 C21        11.1568   -3.2690   -0.0888 C.ar      1 <0>         0.6604
     27 N5          9.8743   -3.2118   -0.4152 N.ar      1 <0>        -0.5668
     28 N6         11.5166   -3.7802    1.1459 N.pl3     1 <0>        -0.7921
     29 H2         -1.0584    1.1403    0.9387 H         1 <0>         0.1282
     30 H3          0.9983    2.4626    1.1860 H         1 <0>         0.1276
     31 H4          3.1871    1.4263    0.9249 H         1 <0>         0.1283
     32 H5          4.5430   -0.5949    0.4656 H         1 <0>         0.1294
     33 H6          2.5584   -4.3129   -0.3065 H         1 <0>         0.1217
     34 H7          0.3844   -3.2575   -0.0446 H         1 <0>         0.1333
     35 H8         -0.9602   -1.2366    0.4176 H         1 <0>         0.1311
     36 H9          5.7466   -1.7099   -1.4609 H         1 <0>         0.1415
     37 H10         8.4410   -4.8996   -0.5533 H         1 <0>         0.1370
     38 H11         7.2968   -6.9118    1.3618 H         1 <0>         0.2020
     39 H12         7.8805   -2.2450   -2.7605 H         1 <0>         0.4389
     40 H13        10.1978   -1.8783   -3.4510 H         1 <0>         0.1875
     41 H14        12.5774   -2.0068   -2.7682 H         1 <0>         0.2170
     42 H15        12.4520   -3.8242    1.3987 H         1 <0>         0.4305
     43 H16        10.8333   -4.0944    1.7586 H         1 <0>         0.4446
     44 H17        13.0329   -2.8970   -0.6407 H         1 <0>         0.4442
@<TRIPOS>BOND
     1    1   10 ar
     2    1    2 ar
     3    1   29 1
     4    2    3 ar
     5    2   30 1
     6    3    4 ar
     7    3   31 1
     8    4    9 ar
     9    4    5 ar
    10    5    6 ar
    11    5   32 1
    12    6    7 ar
    13    6   11 1
    14    7    8 ar
    15    7   33 1
    16    8    9 ar
    17    8   34 1
    18    9   10 ar
    19   10   35 1
    20   11   16 ar
    21   11   12 ar
    22   12   13 ar
    23   12   36 1
    24   13   14 ar
    25   13   21 1
    26   14   15 ar
    27   14   37 1
    28   15   20 1
    29   15   16 ar
    30   16   17 1
    31   17   18 1
    32   17   19 1
    33   19   20 2
    34   20   38 1
    35   21   22 1
    36   21   39 1
    37   22   27 ar
    38   22   23 ar
    39   23   24 ar
    40   23   40 1
    41   24   25 ar
    42   24   41 1
    43   25   26 ar
    44   25   44 1
    45   26   27 ar
    46   26   28 1
    47   28   42 1
    48   28   43 1
@<TRIPOS>MOLECULE
CHEMBL589650__3
   43    47     0     0     0
SMALL
USER_CHARGES

@<TRIPOS>ATOM
      1 C1          0.8183    2.7045    0.0787 C.ar      1 <0>        -0.1171
      2 C2          2.0987    3.2423   -0.0386 C.ar      1 <0>        -0.1177
      3 C3          3.1963    2.4381   -0.0628 C.ar      1 <0>        -0.1055
      4 C4          3.0396    1.0436    0.0319 C.ar      1 <0>        -0.0491
      5 C5          4.1498    0.1858    0.0108 C.ar      1 <0>        -0.0937
      6 C6          3.9556   -1.1811    0.1067 C.ar      1 <0>        -0.0274
      7 C7          2.6591   -1.7116    0.2240 C.ar      1 <0>        -0.0873
      8 C8          1.5731   -0.8975    0.2462 C.ar      1 <0>        -0.1071
      9 C9          1.7368    0.4967    0.1512 C.ar      1 <0>        -0.0493
     10 C10         0.6285    1.3597    0.1725 C.ar      1 <0>        -0.1069
     11 C11         5.1224   -2.0918    0.0850 C.ar      1 <0>        -0.0208
     12 C12         6.0867   -1.9758   -0.8950 C.ar      1 <0>        -0.0493
     13 C13         7.1949   -2.8271   -0.9299 C.ar      1 <0>         0.1373
     14 C14         7.3875   -3.8116   -0.0088 C.ar      1 <0>        -0.0858
     15 C15         6.4552   -4.0084    1.0318 C.ar      1 <0>        -0.1875
     16 C16         5.2784   -3.1292    1.1070 C.ar      1 <0>         0.1092
     17 N1          4.5803   -3.5113    2.1567 N.2       1 <0>        -0.2902
     18 H1          4.9235   -5.0454    3.5669 H         1 <0>         0.4449
     19 N2          5.2356   -4.5838    2.7730 N.pl3     1 <0>        -0.4312
     20 C17         6.3529   -4.8867    2.0948 C.2       1 <0>         0.0803
     21 N3          8.1408   -2.6621   -1.9489 N.pl3     1 <0>        -0.6513
     22 C18         7.7376   -2.2460   -3.2080 C.ar      1 <0>         0.4677
     23 C19         8.6825   -1.9609   -4.1965 C.ar      1 <0>        -0.3389
     24 C20         8.2349   -1.5500   -5.4366 C.ar      1 <0>         0.2184
     25 N4          6.9320   -1.4389   -5.6515 N.ar      1 <0>        -0.6035
     26 C21         6.0579   -1.7159   -4.6954 C.ar      1 <0>         0.6015
     27 N5          6.4459   -2.1178   -3.4943 N.ar      1 <0>        -0.6122
     28 N6          4.7055   -1.5870   -4.9595 N.pl3     1 <0>        -0.8195
     29 H2         -0.0359    3.3649    0.1000 H         1 <0>         0.1224
     30 H3          2.2215    4.3128   -0.1119 H         1 <0>         0.1225
     31 H4          4.1825    2.8685   -0.1545 H         1 <0>         0.1256
     32 H5          5.1476    0.5889   -0.0799 H         1 <0>         0.1264
     33 H6          2.5253   -2.7808    0.2970 H         1 <0>         0.1224
     34 H7          0.5833   -1.3200    0.3364 H         1 <0>         0.1273
     35 H8         -0.3700    0.9580    0.2632 H         1 <0>         0.1262
     36 H9          5.9829   -1.2116   -1.6511 H         1 <0>         0.1446
     37 H10         8.2591   -4.4458   -0.0754 H         1 <0>         0.1262
     38 H11         7.0546   -5.6694    2.3426 H         1 <0>         0.1886
     39 H12         9.0783   -2.8389   -1.7737 H         1 <0>         0.4216
     40 H13         9.7390   -2.0592   -3.9954 H         1 <0>         0.1411
     41 H14         8.9392   -1.3213   -6.2227 H         1 <0>         0.1676
     42 H15         4.4081   -1.2968   -5.8360 H         1 <0>         0.4154
     43 H16         4.0551   -1.7867   -4.2681 H         1 <0>         0.4140
@<TRIPOS>BOND
     1    1   10 ar
     2    1    2 ar
     3    1   29 1
     4    2    3 ar
     5    2   30 1
     6    3    4 ar
     7    3   31 1
     8    4    9 ar
     9    4    5 ar
    10    5    6 ar
    11    5   32 1
    12    6    7 ar
    13    6   11 1
    14    7    8 ar
    15    7   33 1
    16    8    9 ar
    17    8   34 1
    18    9   10 ar
    19   10   35 1
    20   11   16 ar
    21   11   12 ar
    22   12   13 ar
    23   12   36 1
    24   13   14 ar
    25   13   21 1
    26   14   15 ar
    27   14   37 1
    28   15   16 ar
    29   15   20 2
    30   16   17 2
    31   17   19 1
    32   18   19 1
    33   19   20 1
    34   20   38 1
    35   21   22 1
    36   21   39 1
    37   22   27 ar
    38   22   23 ar
    39   23   24 ar
    40   23   40 1
    41   24   25 ar
    42   24   41 1
    43   25   26 ar
    44   26   27 ar
    45   26   28 1
    46   28   42 1
    47   28   43 1
@<TRIPOS>MOLECULE
CHEMBL592288
   35    38     0     0     0
SMALL
USER_CHARGES

@<TRIPOS>ATOM
      1 C1          0.4745    1.6650   -0.2886 C.2       1 <0>        -0.2013
      2 C2          1.7844    2.0952   -0.0214 C.2       1 <0>        -0.1458
      3 C3          2.5828    0.9902   -0.0207 C.2       1 <0>         0.0695
      4 N1          1.7924   -0.1003   -0.2805 N.pl3     1 <0>        -0.5480
      5 H1          2.0971   -1.0193   -0.3389 H         1 <0>         0.4149
      6 C4          0.5060    0.3237   -0.4425 C.2       1 <0>         0.0087
      7 C5          4.0404    0.9707    0.2172 C.2       1 <0>         0.1636
      8 C6          4.7934   -0.0856    0.9042 C.ar      1 <0>        -0.1493
      9 C7          4.4362   -1.2963    1.5020 C.ar      1 <0>        -0.0799
     10 C8          5.4133   -2.0844    2.0791 C.ar      1 <0>         0.1311
     11 C9          6.7468   -1.6746    2.0651 C.ar      1 <0>        -0.0548
     12 C10         7.1070   -0.4933    1.4837 C.ar      1 <0>        -0.1212
     13 C11         6.1401    0.3190    0.8951 C.ar      1 <0>         0.1204
     14 N2          6.1890    1.5301    0.2491 N.pl3     1 <0>        -0.5030
     15 H2          6.9923    2.0508    0.0929 H         1 <0>         0.4437
     16 N3          4.8993    1.8920   -0.1523 N.2       1 <0>        -0.2240
     17 N4          5.0636   -3.2993    2.6809 N.pl3     1 <0>        -0.6504
     18 C12         5.9124   -4.3907    2.5832 C.ar      1 <0>         0.4685
     19 C13         5.6355   -5.5685    3.2811 C.ar      1 <0>        -0.3377
     20 C14         6.5092   -6.6304    3.1540 C.ar      1 <0>         0.2192
     21 N5          7.5768   -6.5025    2.3795 N.ar      1 <0>        -0.6026
     22 C15         7.8148   -5.3733    1.7289 C.ar      1 <0>         0.6007
     23 N6          6.9990   -4.3337    1.8196 N.ar      1 <0>        -0.6144
     24 N7          8.9409   -5.2795    0.9298 N.pl3     1 <0>        -0.8202
     25 H3         -0.4014    2.2934   -0.3546 H         1 <0>         0.1421
     26 H4          2.1009    3.1132    0.1513 H         1 <0>         0.1412
     27 H5         -0.3440   -0.3069   -0.6576 H         1 <0>         0.1709
     28 H6          3.4040   -1.6139    1.5134 H         1 <0>         0.1242
     29 H7          7.5021   -2.2985    2.5196 H         1 <0>         0.1396
     30 H8          8.1429   -0.1880    1.4799 H         1 <0>         0.1319
     31 H9          4.2274   -3.3772    3.1662 H         1 <0>         0.4221
     32 H10         4.7584   -5.6469    3.9063 H         1 <0>         0.1419
     33 H11         6.3245   -7.5552    3.6804 H         1 <0>         0.1688
     34 H12         9.5444   -6.0349    0.8515 H         1 <0>         0.4161
     35 H13         9.1268   -4.4583    0.4481 H         1 <0>         0.4134
@<TRIPOS>BOND
     1    1    6 2
     2    1    2 1
     3    1   25 1
     4    2    3 2
     5    2   26 1
     6    3    4 1
     7    3    7 1
     8    4    5 1
     9    4    6 1
    10    6   27 1
    11    7   16 2
    12    7    8 1
    13    8   13 ar
    14    8    9 ar
    15    9   10 ar
    16    9   28 1
    17   10   11 ar
    18   10   17 1
    19   11   12 ar
    20   11   29 1
    21   12   13 ar
    22   12   30 1
    23   13   14 1
    24   14   15 1
    25   14   16 1
    26   17   18 1
    27   17   31 1
    28   18   23 ar
    29   18   19 ar
    30   19   20 ar
    31   19   32 1
    32   20   21 ar
    33   20   33 1
    34   21   22 ar
    35   22   23 ar
    36   22   24 1
    37   24   34 1
    38   24   35 1
@<TRIPOS>MOLECULE
CHEMBL592288__1
   36    39     0     0     0
SMALL
USER_CHARGES

@<TRIPOS>ATOM
      1 C1         -0.4878    0.3902   -0.4890 C.2       1 <0>        -0.1920
      2 C2          0.7883    0.9630   -0.5955 C.2       1 <0>        -0.1467
      3 C3          1.7041   -0.0584   -0.4707 C.2       1 <0>         0.0333
      4 N1          1.0023   -1.2263   -0.2923 N.pl3     1 <0>        -0.5410
      5 H1          1.3904   -2.1077   -0.1764 H         1 <0>         0.4152
      6 C4         -0.3310   -0.9392   -0.3054 C.2       1 <0>         0.0161
      7 C5          3.1655    0.0763   -0.5198 C.2       1 <0>         0.1978
      8 C6          4.0910   -0.6686    0.2194 C.ar      1 <0>        -0.1935
      9 C7          3.9963   -1.6992    1.1702 C.ar      1 <0>        -0.0199
     10 C8          5.1350   -2.2208    1.7127 C.ar      1 <0>         0.0712
     11 C9          6.4028   -1.7519    1.3440 C.ar      1 <0>        -0.0906
     12 C10         6.5581   -0.7601    0.4324 C.ar      1 <0>        -0.0644
     13 C11         5.4203   -0.1773   -0.1675 C.ar      1 <0>         0.1048
     14 N2          5.2347    0.7776   -1.0631 N.2       1 <0>        -0.2747
     15 H2          3.4734    1.5762   -1.9107 H         1 <0>         0.4516
     16 N3          3.8641    0.9392   -1.2923 N.pl3     1 <0>        -0.4033
     17 N4          5.0339   -3.2470    2.6591 N.pl3     1 <0>        -0.5857
     18 C12         3.9599   -3.2790    3.5345 C.ar      1 <0>         0.5071
     19 C13         3.7833   -4.3609    4.4004 C.ar      1 <0>        -0.2627
     20 C14         2.6993   -4.3498    5.2558 C.ar      1 <0>         0.2125
     21 N5          1.8642   -3.3212    5.2309 N.ar      1 <0>        -0.5755
     22 C15         2.0558   -2.3083    4.3987 C.ar      1 <0>         0.6584
     23 N6          3.0859   -2.2780    3.5665 N.ar      1 <0>        -0.5672
     24 N7          1.1606   -1.2529    4.4030 N.pl3     1 <0>        -0.7920
     25 H3         -1.4284    0.9186   -0.5400 H         1 <0>         0.1477
     26 H4          1.0110    2.0089   -0.7470 H         1 <0>         0.1446
     27 H5         -1.1299   -1.6565   -0.1881 H         1 <0>         0.1737
     28 H6          3.0293   -2.0756    1.4697 H         1 <0>         0.1295
     29 H7          7.2787   -2.1914    1.7978 H         1 <0>         0.1389
     30 H8          7.5472   -0.4174    0.1667 H         1 <0>         0.1456
     31 H9          5.7154   -3.9359    2.7022 H         1 <0>         0.4386
     32 H10         4.4786   -5.1873    4.4006 H         1 <0>         0.1875
     33 H11         2.5337   -5.1709    5.9376 H         1 <0>         0.2168
     34 H12         0.4043   -1.2609    5.0104 H         1 <0>         0.4302
     35 H13         1.2894   -0.5052    3.7987 H         1 <0>         0.4443
     36 H14         1.1016   -3.3098    5.8302 H         1 <0>         0.4437
@<TRIPOS>BOND
     1    1    6 2
     2    1    2 1
     3    1   25 1
     4    2    3 2
     5    2   26 1
     6    3    4 1
     7    3    7 1
     8    4    5 1
     9    4    6 1
    10    6   27 1
    11    7    8 2
    12    7   16 1
    13    8    9 ar
    14    8   13 ar
    15    9   10 ar
    16    9   28 1
    17   10   11 ar
    18   10   17 1
    19   11   12 ar
    20   11   29 1
    21   12   13 ar
    22   12   30 1
    23   13   14 2
    24   14   16 1
    25   15   16 1
    26   17   18 1
    27   17   31 1
    28   18   23 ar
    29   18   19 ar
    30   19   20 ar
    31   19   32 1
    32   20   21 ar
    33   20   33 1
    34   21   22 ar
    35   21   36 1
    36   22   23 ar
    37   22   24 1
    38   24   34 1
    39   24   35 1
@<TRIPOS>MOLECULE
CHEMBL592288__2
   36    39     0     0     0
SMALL
USER_CHARGES

@<TRIPOS>ATOM
      1 C1          0.4745    1.6650   -0.2886 C.2       1 <0>        -0.1986
      2 C2          1.7844    2.0952   -0.0214 C.2       1 <0>        -0.1342
      3 C3          2.5828    0.9902   -0.0207 C.2       1 <0>         0.0539
      4 N1          1.7924   -0.1003   -0.2805 N.pl3     1 <0>        -0.5506
      5 H1          2.0971   -1.0194   -0.3389 H         1 <0>         0.4124
      6 C4          0.5060    0.3237   -0.4425 C.2       1 <0>         0.0158
      7 C5          4.0404    0.9707    0.2172 C.2       1 <0>         0.1767
      8 C6          4.7934   -0.0856    0.9042 C.ar      1 <0>        -0.1556
      9 C7          4.4362   -1.2964    1.5020 C.ar      1 <0>        -0.0407
     10 C8          5.4133   -2.0844    2.0791 C.ar      1 <0>         0.0720
     11 C9          6.7468   -1.6746    2.0651 C.ar      1 <0>        -0.0537
     12 C10         7.1070   -0.4933    1.4837 C.ar      1 <0>        -0.1169
     13 C11         6.1401    0.3190    0.8951 C.ar      1 <0>         0.1405
     14 N2          6.1890    1.5301    0.2491 N.pl3     1 <0>        -0.4957
     15 H2          6.9923    2.0508    0.0929 H         1 <0>         0.4491
     16 N3          4.8993    1.8920   -0.1523 N.2       1 <0>        -0.2145
     17 N4          5.0636   -3.2993    2.6809 N.pl3     1 <0>        -0.5909
     18 C12         5.9124   -4.3907    2.5832 C.ar      1 <0>         0.5141
     19 C13         5.6355   -5.5685    3.2811 C.ar      1 <0>        -0.2634
     20 C14         6.5092   -6.6304    3.1540 C.ar      1 <0>         0.2152
     21 N5          7.5768   -6.5025    2.3795 N.ar      1 <0>        -0.5743
     22 C15         7.8150   -5.3731    1.7292 C.ar      1 <0>         0.6600
     23 N6          6.9990   -4.3337    1.8196 N.ar      1 <0>        -0.5666
     24 N7          8.9414   -5.2792    0.9305 N.pl3     1 <0>        -0.7920
     25 H3         -0.4014    2.2934   -0.3546 H         1 <0>         0.1459
     26 H4          2.1009    3.1132    0.1513 H         1 <0>         0.1440
     27 H5         -0.3440   -0.3069   -0.6577 H         1 <0>         0.1740
     28 H6          3.4040   -1.6139    1.5134 H         1 <0>         0.1324
     29 H7          7.5021   -2.2985    2.5196 H         1 <0>         0.1380
     30 H8          8.1429   -0.1880    1.4799 H         1 <0>         0.1401
     31 H9          4.2274   -3.3772    3.1662 H         1 <0>         0.4382
     32 H10         4.7584   -5.6469    3.9063 H         1 <0>         0.1879
     33 H11         6.3245   -7.5552    3.6804 H         1 <0>         0.2176
     34 H12         9.5448   -6.0346    0.8522 H         1 <0>         0.4308
     35 H13         9.1274   -4.4579    0.4490 H         1 <0>         0.4444
     36 H14         8.1928   -7.2461    2.2876 H         1 <0>         0.4445
@<TRIPOS>BOND
     1    1    6 2
     2    1    2 1
     3    1   25 1
     4    2    3 2
     5    2   26 1
     6    3    4 1
     7    3    7 1
     8    4    5 1
     9    4    6 1
    10    6   27 1
    11    7   16 2
    12    7    8 1
    13    8   13 ar
    14    8    9 ar
    15    9   10 ar
    16    9   28 1
    17   10   11 ar
    18   10   17 1
    19   11   12 ar
    20   11   29 1
    21   12   13 ar
    22   12   30 1
    23   13   14 1
    24   14   15 1
    25   14   16 1
    26   17   18 1
    27   17   31 1
    28   18   23 ar
    29   18   19 ar
    30   19   20 ar
    31   19   32 1
    32   20   21 ar
    33   20   33 1
    34   21   22 ar
    35   21   36 1
    36   22   23 ar
    37   22   24 1
    38   24   34 1
    39   24   35 1
@<TRIPOS>MOLECULE
CHEMBL592288__3
   35    38     0     0     0
SMALL
USER_CHARGES

@<TRIPOS>ATOM
      1 C1         -0.4878    0.3902   -0.4890 C.2       1 <0>        -0.1961
      2 C2          0.7883    0.9630   -0.5955 C.2       1 <0>        -0.1592
      3 C3          1.7041   -0.0584   -0.4707 C.2       1 <0>         0.0478
      4 N1          1.0023   -1.2263   -0.2923 N.pl3     1 <0>        -0.5362
      5 H1          1.3904   -2.1077   -0.1764 H         1 <0>         0.4173
      6 C4         -0.3310   -0.9392   -0.3054 C.2       1 <0>         0.0137
      7 C5          3.1655    0.0763   -0.5198 C.2       1 <0>         0.1753
      8 C6          4.0910   -0.6686    0.2194 C.ar      1 <0>        -0.1737
      9 C7          3.9963   -1.6992    1.1702 C.ar      1 <0>        -0.0494
     10 C8          5.1350   -2.2208    1.7127 C.ar      1 <0>         0.1163
     11 C9          6.4028   -1.7519    1.3440 C.ar      1 <0>        -0.0894
     12 C10         6.5581   -0.7601    0.4324 C.ar      1 <0>        -0.0819
     13 C11         5.4203   -0.1773   -0.1675 C.ar      1 <0>         0.0959
     14 N2          5.2347    0.7776   -1.0631 N.2       1 <0>        -0.2886
     15 H2          3.4734    1.5762   -1.9107 H         1 <0>         0.4455
     16 N3          3.8641    0.9392   -1.2923 N.pl3     1 <0>        -0.4116
     17 N4          5.0339   -3.2470    2.6591 N.pl3     1 <0>        -0.6479
     18 C12         3.9599   -3.2790    3.5345 C.ar      1 <0>         0.4663
     19 C13         3.7833   -4.3609    4.4004 C.ar      1 <0>        -0.3395
     20 C14         2.6993   -4.3498    5.2558 C.ar      1 <0>         0.2179
     21 N5          1.8642   -3.3212    5.2309 N.ar      1 <0>        -0.6042
     22 C15         2.0561   -2.3081    4.3990 C.ar      1 <0>         0.6000
     23 N6          3.0859   -2.2780    3.5665 N.ar      1 <0>        -0.6128
     24 N7          1.1611   -1.2525    4.4037 N.pl3     1 <0>        -0.8196
     25 H3         -1.4284    0.9186   -0.5400 H         1 <0>         0.1434
     26 H4          1.0110    2.0089   -0.7470 H         1 <0>         0.1403
     27 H5         -1.1299   -1.6565   -0.1881 H         1 <0>         0.1708
     28 H6          3.0293   -2.0756    1.4697 H         1 <0>         0.1323
     29 H7          7.2787   -2.1914    1.7978 H         1 <0>         0.1319
     30 H8          7.5472   -0.4174    0.1667 H         1 <0>         0.1365
     31 H9          5.7154   -3.9359    2.7022 H         1 <0>         0.4214
     32 H10         4.4786   -5.1873    4.4006 H         1 <0>         0.1411
     33 H11         2.5337   -5.1709    5.9376 H         1 <0>         0.1676
     34 H12         0.4048   -1.2605    5.0110 H         1 <0>         0.4153
     35 H13         1.2901   -0.5046    3.7996 H         1 <0>         0.4133
@<TRIPOS>BOND
     1    1    6 2
     2    1    2 1
     3    1   25 1
     4    2    3 2
     5    2   26 1
     6    3    4 1
     7    3    7 1
     8    4    5 1
     9    4    6 1
    10    6   27 1
    11    7    8 2
    12    7   16 1
    13    8    9 ar
    14    8   13 ar
    15    9   10 ar
    16    9   28 1
    17   10   11 ar
    18   10   17 1
    19   11   12 ar
    20   11   29 1
    21   12   13 ar
    22   12   30 1
    23   13   14 2
    24   14   16 1
    25   15   16 1
    26   17   18 1
    27   17   31 1
    28   18   23 ar
    29   18   19 ar
    30   19   20 ar
    31   19   32 1
    32   20   21 ar
    33   20   33 1
    34   21   22 ar
    35   22   23 ar
    36   22   24 1
    37   24   34 1
    38   24   35 1
@<TRIPOS>MOLECULE
CHEMBL562754
   33    36     0     0     0
SMALL
USER_CHARGES

@<TRIPOS>ATOM
      1 C1         -0.0187    1.5258    0.0104 C.3       1 <0>        -0.1633
      2 C2          0.0021   -0.0041    0.0020 C.3       1 <0>         0.1103
      3 H1         -1.0257   -0.3670    0.0099 H         1 <0>         0.0762
      4 C3          0.6723   -0.4730   -1.2695 C.3       1 <0>         0.1130
      5 N1          0.4780   -1.8814   -1.5161 N.pl3     1 <0>        -0.7250
      6 C4          1.0866   -2.8852   -0.7581 C.2       1 <0>         0.2440
      7 C5          1.4182   -4.1838   -1.3628 C.ar      1 <0>        -0.0768
      8 C6          2.0171   -5.1240   -0.5035 C.ar      1 <0>        -0.1229
      9 C7          2.3726   -6.3857   -0.9364 C.ar      1 <0>        -0.0488
     10 C8          2.1457   -6.7543   -2.2436 C.ar      1 <0>        -0.0887
     11 C9          1.5569   -5.8474   -3.1339 C.ar      1 <0>         0.0980
     12 C10         1.2081   -4.5895   -2.6993 C.ar      1 <0>        -0.1256
     13 C11         0.6247   -3.8447   -3.8839 C.3       1 <0>        -0.1193
     14 C12         1.0749   -4.7318   -5.0690 C.3       1 <0>         0.0532
     15 O1          1.2438   -6.0194   -4.4517 O.3       1 <0>        -0.3009
     16 S1          2.1366   -4.2750    1.0473 S.3       1 <0>         0.1427
     17 C13         1.4085   -2.7183    0.5741 C.2       1 <0>        -0.2796
     18 C14         1.2409   -1.6214    1.4218 C.2       1 <0>         0.6012
     19 O2          1.7026   -1.7595    2.5401 O.2       1 <0>        -0.5660
     20 N2          0.6645   -0.4644    1.1979 N.am      1 <0>        -0.6975
     21 H2          1.0039    1.9031    0.0027 H         1 <0>         0.0686
     22 H3         -0.5459    1.8868   -0.8726 H         1 <0>         0.0785
     23 H4         -0.5289    1.8773    0.9072 H         1 <0>         0.0705
     24 H5          0.2662    0.0904   -2.1096 H         1 <0>         0.1048
     25 H6          1.7413   -0.2726   -1.1982 H         1 <0>         0.0727
     26 H7         -0.1052   -2.1448   -2.2450 H         1 <0>         0.4013
     27 H8          2.8289   -7.0835   -0.2499 H         1 <0>         0.1488
     28 H9          2.4219   -7.7420   -2.5822 H         1 <0>         0.1453
     29 H10        -0.4626   -3.8015   -3.8203 H         1 <0>         0.0945
     30 H11         1.0492   -2.8438   -3.9627 H         1 <0>         0.0947
     31 H12         0.3036   -4.7702   -5.8381 H         1 <0>         0.1107
     32 H13         2.0179   -4.3745   -5.4829 H         1 <0>         0.0805
     33 H14         0.6845    0.1642    1.9363 H         1 <0>         0.4049
@<TRIPOS>BOND
     1    1    2 1
     2    1   21 1
     3    1   22 1
     4    1   23 1
     5    2    3 1
     6    2   20 1
     7    2    4 1
     8    4    5 1
     9    4   24 1
    10    4   25 1
    11    5    6 1
    12    5   26 1
    13    6   17 2
    14    6    7 1
    15    7   12 ar
    16    7    8 ar
    17    8    9 ar
    18    8   16 1
    19    9   10 ar
    20    9   27 1
    21   10   11 ar
    22   10   28 1
    23   11   15 1
    24   11   12 ar
    25   12   13 1
    26   13   14 1
    27   13   29 1
    28   13   30 1
    29   14   15 1
    30   14   31 1
    31   14   32 1
    32   16   17 1
    33   17   18 1
    34   18   19 2
    35   18   20 am
    36   20   33 1
@<TRIPOS>MOLECULE
CHEMBL403258
   74    80     0     0     0
SMALL
USER_CHARGES

@<TRIPOS>ATOM
      1 C1         -0.0167    1.3781    0.0096 C.ar      1 <0>        -0.0841
      2 C2          1.1709    2.0855    0.0021 C.ar      1 <0>        -0.1135
      3 C3          2.3773    1.4107   -0.0130 C.ar      1 <0>        -0.0980
      4 C4          2.3960    0.0285   -0.0201 C.ar      1 <0>        -0.1619
      5 C5          1.2084   -0.6789   -0.0117 C.ar      1 <0>        -0.0937
      6 C6          0.0021   -0.0041    0.0020 C.ar      1 <0>        -0.1129
      7 C7          3.7112   -0.7071   -0.0376 C.3       1 <0>         0.0442
      8 N1          4.1530   -0.9531    1.3416 N.4       1 <0>        -0.3830
      9 C8          4.4244    0.3290    2.0029 C.3       1 <0>        -0.0069
     10 C9          4.8069    0.0828    3.4639 C.3       1 <0>        -0.1535
     11 C10         6.0600   -0.7959    3.5167 C.3       1 <0>         0.1362
     12 C11         5.7896   -2.0995    2.7599 C.3       1 <0>        -0.1610
     13 C12         5.3707   -1.7725    1.3250 C.3       1 <0>        -0.0023
     14 N2          6.3878   -1.0985    4.9121 N.am      1 <0>        -0.7161
     15 C13         7.6554   -1.4002    5.2564 C.2       1 <0>         0.6041
     16 O1          8.5273   -1.4214    4.4085 O.2       1 <0>        -0.5274
     17 C14         7.9847   -1.7042    6.6585 C.2       1 <0>        -0.0113
     18 C15         9.2674   -2.0065    7.0205 C.2       1 <0>        -0.2383
     19 S1          9.1285   -2.2664    8.6773 S.3       1 <0>         0.2860
     20 C16         7.3774   -1.9669    8.8390 C.2       1 <0>         0.2747
     21 N3          7.0354   -1.6836    7.5986 N.2       1 <0>        -0.5065
     22 N4          6.5832   -2.0150    9.9761 N.am      1 <0>        -0.6048
     23 C17         7.1311   -2.3231   11.1683 C.2       1 <0>         0.5675
     24 O2          8.3211   -2.5589   11.2476 O.2       1 <0>        -0.4956
     25 C18         6.2858   -2.3743   12.3785 C.ar      1 <0>        -0.1135
     26 C19         4.9173   -2.1048   12.2630 C.ar      1 <0>        -0.1305
     27 C20         4.0798   -2.1351   13.3438 C.ar      1 <0>        -0.0472
     28 C21         4.6495   -2.4514   14.5878 C.ar      1 <0>        -0.0983
     29 C22         4.0810   -2.5680   15.8686 C.2       1 <0>        -0.0987
     30 C23         5.0740   -2.8851   16.7252 C.2       1 <0>         0.0184
     31 N5          6.2775   -2.9947   16.0236 N.pl3     1 <0>        -0.4408
     32 C24         6.0397   -2.7274   14.7180 C.ar      1 <0>         0.1205
     33 C25         6.8749   -2.6957   13.6038 C.ar      1 <0>        -0.0638
     34 C26         7.5131   -3.3561   16.7204 C.3       1 <0>         0.1200
     35 C27         8.7850   -2.9283   15.9788 C.3       1 <0>        -0.1381
     36 C28         8.7354   -4.2952   15.2743 C.3       1 <0>        -0.1571
     37 C29         7.9470   -4.8085   16.4919 C.3       1 <0>        -0.1402
     38 C30         7.4898   -2.9438   18.1891 C.3       1 <0>         0.1208
     39 N6          6.2128   -3.2506   18.8259 N.am      1 <0>        -0.7283
     40 C31         5.0324   -3.1232   18.1806 C.2       1 <0>         0.5910
     41 O3          3.9754   -3.2014   18.7772 O.2       1 <0>        -0.5055
     42 H1         -0.9591    1.9053    0.0259 H         1 <0>         0.1359
     43 H2          1.1563    3.1654    0.0076 H         1 <0>         0.1362
     44 H3          3.3051    1.9634   -0.0196 H         1 <0>         0.1314
     45 H4          1.2231   -1.7588   -0.0176 H         1 <0>         0.1312
     46 H5         -0.9258   -0.5567    0.0082 H         1 <0>         0.1361
     47 H6          3.5884   -1.6586   -0.5549 H         1 <0>         0.1378
     48 H7          4.4573   -0.1052   -0.5563 H         1 <0>         0.1364
     49 H8          5.2450    0.8337    1.4930 H         1 <0>         0.1325
     50 H9          3.5326    0.9544    1.9617 H         1 <0>         0.1368
     51 H10         5.0097    1.0357    3.9526 H         1 <0>         0.1193
     52 H11         3.9868   -0.4218    3.9748 H         1 <0>         0.0942
     53 H12         6.8936   -0.2703    3.0510 H         1 <0>         0.1063
     54 H13         6.6949   -2.7065    2.7454 H         1 <0>         0.1182
     55 H14         4.9899   -2.6494    3.2562 H         1 <0>         0.0909
     56 H15         5.1776   -2.6984    0.7833 H         1 <0>         0.1349
     57 H16         6.1712   -1.2229    0.8296 H         1 <0>         0.1331
     58 H17         5.6925   -1.0816    5.5883 H         1 <0>         0.4152
     59 H18        10.1489   -2.0645    6.3992 H         1 <0>         0.2098
     60 H19         5.6337   -1.8268    9.9129 H         1 <0>         0.4277
     61 H20         4.5107   -1.8654   11.2915 H         1 <0>         0.1233
     62 H21         3.0250   -1.9252   13.2447 H         1 <0>         0.1459
     63 H22         3.0401   -2.4288   16.1206 H         1 <0>         0.1649
     64 H23         7.9311   -2.9065   13.6841 H         1 <0>         0.1609
     65 H24         8.6353   -2.0840   15.3058 H         1 <0>         0.0856
     66 H25         9.6498   -2.8036   16.6305 H         1 <0>         0.1125
     67 H26         8.1567   -4.2893   14.3506 H         1 <0>         0.0947
     68 H27         9.7134   -4.7625   15.1591 H         1 <0>         0.0867
     69 H28         8.5792   -5.2057   17.2860 H         1 <0>         0.1064
     70 H29         7.1244   -5.4743   16.2308 H         1 <0>         0.0789
     71 H30         8.2844   -3.4707   18.7174 H         1 <0>         0.1111
     72 H31         7.6714   -1.8713   18.2586 H         1 <0>         0.0796
     73 H32         6.2115   -3.5576   19.7460 H         1 <0>         0.4128
     74 H33         3.4271   -1.4414    1.8443 H         1 <0>         0.4220
@<TRIPOS>BOND
     1    1    6 ar
     2    1    2 ar
     3    1   42 1
     4    2    3 ar
     5    2   43 1
     6    3    4 ar
     7    3   44 1
     8    4    5 ar
     9    4    7 1
    10    5    6 ar
    11    5   45 1
    12    6   46 1
    13    7    8 1
    14    7   47 1
    15    7   48 1
    16    8   13 1
    17    8    9 1
    18    8   74 1
    19    9   10 1
    20    9   49 1
    21    9   50 1
    22   10   11 1
    23   10   51 1
    24   10   52 1
    25   11   12 1
    26   11   14 1
    27   11   53 1
    28   12   13 1
    29   12   54 1
    30   12   55 1
    31   13   56 1
    32   13   57 1
    33   14   15 am
    34   14   58 1
    35   15   16 2
    36   15   17 1
    37   17   21 1
    38   17   18 2
    39   18   19 1
    40   18   59 1
    41   19   20 1
    42   20   21 2
    43   20   22 1
    44   22   23 am
    45   22   60 1
    46   23   24 2
    47   23   25 1
    48   25   33 ar
    49   25   26 ar
    50   26   27 ar
    51   26   61 1
    52   27   28 ar
    53   27   62 1
    54   28   32 ar
    55   28   29 1
    56   29   30 2
    57   29   63 1
    58   30   40 1
    59   30   31 1
    60   31   32 1
    61   31   34 1
    62   32   33 ar
    63   33   64 1
    64   34   37 1
    65   34   35 1
    66   34   38 1
    67   35   36 1
    68   35   65 1
    69   35   66 1
    70   36   37 1
    71   36   67 1
    72   36   68 1
    73   37   69 1
    74   37   70 1
    75   38   39 1
    76   38   71 1
    77   38   72 1
    78   39   40 am
    79   39   73 1
    80   40   41 2
@<TRIPOS>MOLECULE
CHEMBL429504
   73    78     0     0     0
SMALL
USER_CHARGES

@<TRIPOS>ATOM
      1 C1          0.0726    1.5231    0.0632 C.3       1 <0>        -0.1620
      2 C2          0.0021   -0.0041    0.0020 C.3       1 <0>         0.1475
      3 C3         -1.4601   -0.4464   -0.0320 C.3       1 <0>         0.1093
      4 N1         -2.1294   -0.2613    1.2506 N.am      1 <0>        -0.7292
      5 C4         -1.5144   -0.5423    2.4231 C.2       1 <0>         0.5911
      6 O1         -2.1226   -0.5608    3.4761 O.2       1 <0>        -0.5032
      7 C5         -0.0669   -0.8255    2.3570 C.2       1 <0>         0.0172
      8 N2          0.6517   -0.5725    1.1885 N.pl3     1 <0>        -0.4539
      9 C6          1.9424   -0.9316    1.3926 C.ar      1 <0>         0.1177
     10 C7          3.0602   -0.9082    0.5624 C.ar      1 <0>        -0.0540
     11 C8          4.2647   -1.3590    1.1082 C.ar      1 <0>        -0.1146
     12 C9          4.3545   -1.8153    2.4282 C.ar      1 <0>        -0.1304
     13 C10         3.2684   -1.8468    3.2589 C.ar      1 <0>        -0.0486
     14 C11         2.0457   -1.3998    2.7325 C.ar      1 <0>        -0.0979
     15 C12         0.7647   -1.3071    3.3043 C.2       1 <0>        -0.1015
     16 C13         5.4789   -1.3545    0.2671 C.2       1 <0>         0.5679
     17 O2          5.4208   -0.9622   -0.8821 O.2       1 <0>        -0.4966
     18 N3          6.6512   -1.7852    0.7738 N.am      1 <0>        -0.6050
     19 C14         7.7921   -1.7809   -0.0165 C.2       1 <0>         0.2750
     20 N4          9.0155   -2.1626    0.2893 N.2       1 <0>        -0.5067
     21 C15         9.9631   -2.0650   -0.6476 C.2       1 <0>        -0.0113
     22 C16         9.6278   -1.5760   -1.8790 C.2       1 <0>        -0.2384
     23 S1          7.9824   -1.2644   -1.7133 S.3       1 <0>         0.2855
     24 C17        11.3462   -2.4772   -0.3581 C.2       1 <0>         0.6041
     25 O3         12.2014   -2.3838   -1.2181 O.2       1 <0>        -0.5275
     26 N5         11.6651   -2.9581    0.8599 N.am      1 <0>        -0.7161
     27 C18        13.0416   -3.3683    1.1481 C.3       1 <0>         0.1361
     28 C19        13.2502   -4.8160    0.6943 C.3       1 <0>        -0.1609
     29 C20        14.6644   -5.2638    1.0699 C.3       1 <0>        -0.0023
     30 N6         14.8393   -5.1755    2.5246 N.4       1 <0>        -0.3830
     31 C21        14.7117   -3.7788    2.9577 C.3       1 <0>        -0.0069
     32 C22        13.2994   -3.2739    2.6547 C.3       1 <0>        -0.1536
     33 C23        16.1705   -5.6795    2.8877 C.3       1 <0>         0.0441
     34 C24        16.3060   -5.7045    4.3884 C.ar      1 <0>        -0.1617
     35 C25        16.7915   -4.5963    5.0571 C.ar      1 <0>        -0.0983
     36 C26        16.9158   -4.6192    6.4337 C.ar      1 <0>        -0.1133
     37 C27        16.5542   -5.7501    7.1416 C.ar      1 <0>        -0.0841
     38 C28        16.0678   -6.8580    6.4730 C.ar      1 <0>        -0.1128
     39 C29        15.9395   -6.8335    5.0968 C.ar      1 <0>        -0.0938
     40 C30         0.7160   -0.4985   -1.2577 C.3       1 <0>        -0.1653
     41 H1          1.1158    1.8378    0.0917 H         1 <0>         0.0699
     42 H2         -0.4101    1.9447   -0.8184 H         1 <0>         0.0849
     43 H3         -0.4376    1.8747    0.9599 H         1 <0>         0.0668
     44 H4         -1.9861    0.1326   -0.7911 H         1 <0>         0.1110
     45 H5         -1.5031   -1.5013   -0.3032 H         1 <0>         0.0788
     46 H6         -3.0400    0.0725    1.2636 H         1 <0>         0.4130
     47 H7          2.9987   -0.5577   -0.4573 H         1 <0>         0.1523
     48 H8          5.3099   -2.1529    2.8019 H         1 <0>         0.1226
     49 H9          3.3478   -2.2004    4.2763 H         1 <0>         0.1450
     50 H10         0.4958   -1.5723    4.3161 H         1 <0>         0.1635
     51 H11         6.6975   -2.0981    1.6907 H         1 <0>         0.4277
     52 H12        10.2593   -1.4304   -2.7429 H         1 <0>         0.2098
     53 H13        10.9832   -3.0325    1.5457 H         1 <0>         0.4152
     54 H14        13.7351   -2.7154    0.6181 H         1 <0>         0.1063
     55 H15        12.5217   -5.4603    1.1864 H         1 <0>         0.0909
     56 H16        13.1229   -4.8806   -0.3863 H         1 <0>         0.1182
     57 H17        14.8163   -6.2941    0.7481 H         1 <0>         0.1350
     58 H18        15.3921   -4.6191    0.5771 H         1 <0>         0.1331
     59 H19        14.8986   -3.7127    4.0295 H         1 <0>         0.1368
     60 H20        15.4384   -3.1657    2.4247 H         1 <0>         0.1326
     61 H21        13.2072   -2.2362    2.9754 H         1 <0>         0.1193
     62 H22        12.5718   -3.8861    3.1876 H         1 <0>         0.0942
     63 H23        16.2966   -6.6884    2.4947 H         1 <0>         0.1379
     64 H24        16.9340   -5.0267    2.4648 H         1 <0>         0.1364
     65 H25        17.0741   -3.7128    4.5040 H         1 <0>         0.1313
     66 H26        17.2958   -3.7537    6.9560 H         1 <0>         0.1362
     67 H27        16.6519   -5.7683    8.2170 H         1 <0>         0.1359
     68 H28        15.7855   -7.7416    7.0261 H         1 <0>         0.1361
     69 H29        15.5560   -7.6977    4.5748 H         1 <0>         0.1312
     70 H30         1.7081   -0.0504   -1.3126 H         1 <0>         0.0797
     71 H31         0.8090   -1.5839   -1.2202 H         1 <0>         0.0740
     72 H32         0.1394   -0.2134   -2.1376 H         1 <0>         0.0900
     73 H33        14.1342   -5.7340    2.9817 H         1 <0>         0.4221
@<TRIPOS>BOND
     1    1    2 1
     2    1   41 1
     3    1   42 1
     4    1   43 1
     5    2    8 1
     6    2    3 1
     7    2   40 1
     8    3    4 1
     9    3   44 1
    10    3   45 1
    11    4    5 am
    12    4   46 1
    13    5    6 2
    14    5    7 1
    15    7   15 2
    16    7    8 1
    17    8    9 1
    18    9   14 ar
    19    9   10 ar
    20   10   11 ar
    21   10   47 1
    22   11   12 ar
    23   11   16 1
    24   12   13 ar
    25   12   48 1
    26   13   14 ar
    27   13   49 1
    28   14   15 1
    29   15   50 1
    30   16   17 2
    31   16   18 am
    32   18   19 1
    33   18   51 1
    34   19   23 1
    35   19   20 2
    36   20   21 1
    37   21   22 2
    38   21   24 1
    39   22   23 1
    40   22   52 1
    41   24   25 2
    42   24   26 am
    43   26   27 1
    44   26   53 1
    45   27   32 1
    46   27   28 1
    47   27   54 1
    48   28   29 1
    49   28   55 1
    50   28   56 1
    51   29   30 1
    52   29   57 1
    53   29   58 1
    54   30   31 1
    55   30   33 1
    56   30   73 1
    57   31   32 1
    58   31   59 1
    59   31   60 1
    60   32   61 1
    61   32   62 1
    62   33   34 1
    63   33   63 1
    64   33   64 1
    65   34   39 ar
    66   34   35 ar
    67   35   36 ar
    68   35   65 1
    69   36   37 ar
    70   36   66 1
    71   37   38 ar
    72   37   67 1
    73   38   39 ar
    74   38   68 1
    75   39   69 1
    76   40   70 1
    77   40   71 1
    78   40   72 1
@<TRIPOS>MOLECULE
CHEMBL599479
   44    47     0     0     0
SMALL
USER_CHARGES

@<TRIPOS>ATOM
      1 C1         -0.0173    1.4248    0.0099 C.3       1 <0>         0.0249
      2 O1          0.0021   -0.0041    0.0020 O.3       1 <0>        -0.3146
      3 C2          0.6060   -0.6073   -1.0561 C.ar      1 <0>         0.1186
      4 C3          1.1728    0.1619   -2.0620 C.ar      1 <0>        -0.1832
      5 C4          1.7867   -0.4501   -3.1366 C.ar      1 <0>        -0.0765
      6 C5          1.8367   -1.8358   -3.2105 C.ar      1 <0>         0.1283
      7 C6          1.2693   -2.6052   -2.2033 C.ar      1 <0>        -0.1031
      8 C7          0.6603   -1.9919   -1.1266 C.ar      1 <0>        -0.1230
      9 N1          2.4595   -2.4579   -4.3016 N.pl3     1 <0>        -0.3096
     10 C8          2.5708   -3.7906   -4.4950 C.2       1 <0>         0.0975
     11 C9          3.2390   -3.9849   -5.6680 C.2       1 <0>        -0.2319
     12 C10         3.5417   -2.7106   -6.2015 C.2       1 <0>         0.3669
     13 N2          3.0673   -1.8048   -5.3805 N.2       1 <0>        -0.3476
     14 N3          4.2220   -2.4607   -7.3966 N.pl3     1 <0>        -0.8369
     15 C11         3.5858   -5.2949   -6.2739 C.ar      1 <0>        -0.0043
     16 C12         4.2093   -6.2768   -5.5021 C.ar      1 <0>        -0.0742
     17 C13         4.5331   -7.4981   -6.0554 C.ar      1 <0>        -0.1270
     18 C14         4.2415   -7.7576   -7.3848 C.ar      1 <0>         0.1226
     19 C15         3.6174   -6.7740   -8.1693 C.ar      1 <0>        -0.1563
     20 C16         3.2839   -5.5446   -7.6078 C.ar      1 <0>        -0.0522
     21 C17         3.3249   -7.0680   -9.5855 C.2       1 <0>         0.5736
     22 O2          3.6193   -6.2723  -10.4564 O.2       1 <0>        -0.5231
     23 N4          2.7230   -8.2407   -9.8978 N.am      1 <0>        -0.7235
     24 C18         2.2820   -9.1343   -8.8253 C.3       1 <0>         0.0710
     25 C19         3.4698   -9.8496   -8.1956 C.3       1 <0>         0.0448
     26 O3          4.5469   -8.9558   -7.9442 O.3       1 <0>        -0.3234
     27 H1          1.0053    1.8021    0.0021 H         1 <0>         0.0575
     28 H2         -0.5445    1.7859   -0.8732 H         1 <0>         0.0575
     29 H3         -0.5275    1.7763    0.9067 H         1 <0>         0.1029
     30 H4          1.1335    1.2397   -2.0047 H         1 <0>         0.1376
     31 H5          2.2275    0.1488   -3.9198 H         1 <0>         0.1415
     32 H6          1.3078   -3.6830   -2.2602 H         1 <0>         0.1376
     33 H7          0.2225   -2.5901   -0.3412 H         1 <0>         0.1424
     34 H8          2.1978   -4.5630   -3.8387 H         1 <0>         0.1812
     35 H9          4.5330   -3.2005   -7.9415 H         1 <0>         0.4130
     36 H10         4.3832   -1.5474   -7.6811 H         1 <0>         0.4067
     37 H11         4.4400   -6.0788   -4.4658 H         1 <0>         0.1352
     38 H12         5.0150   -8.2529   -5.4517 H         1 <0>         0.1395
     39 H13         2.7978   -4.7880   -8.2058 H         1 <0>         0.1344
     40 H14         2.5848   -8.4866  -10.8259 H         1 <0>         0.4085
     41 H15         1.7680   -8.5512   -8.0611 H         1 <0>         0.0807
     42 H16         1.5938   -9.8738   -9.2347 H         1 <0>         0.1059
     43 H17         3.1552  -10.3011   -7.2548 H         1 <0>         0.0729
     44 H18         3.8099  -10.6357   -8.8698 H         1 <0>         0.1071
@<TRIPOS>BOND
     1    1    2 1
     2    1   27 1
     3    1   28 1
     4    1   29 1
     5    2    3 1
     6    3    8 ar
     7    3    4 ar
     8    4    5 ar
     9    4   30 1
    10    5    6 ar
    11    5   31 1
    12    6    7 ar
    13    6    9 1
    14    7    8 ar
    15    7   32 1
    16    8   33 1
    17    9   13 1
    18    9   10 1
    19   10   11 2
    20   10   34 1
    21   11   12 1
    22   11   15 1
    23   12   13 2
    24   12   14 1
    25   14   35 1
    26   14   36 1
    27   15   20 ar
    28   15   16 ar
    29   16   17 ar
    30   16   37 1
    31   17   18 ar
    32   17   38 1
    33   18   26 1
    34   18   19 ar
    35   19   20 ar
    36   19   21 1
    37   20   39 1
    38   21   22 2
    39   21   23 am
    40   23   24 1
    41   23   40 1
    42   24   25 1
    43   24   41 1
    44   24   42 1
    45   25   26 1
    46   25   43 1
    47   25   44 1
@<TRIPOS>MOLECULE
CHEMBL524266
   34    36     0     0     0
SMALL
USER_CHARGES

@<TRIPOS>ATOM
      1 C1         -0.0169    1.3959    0.0097 C.ar      1 <0>        -0.3004
      2 C2          1.1895    2.0705    0.0018 C.ar      1 <0>         0.2057
      3 N1          2.3189    1.3790   -0.0127 N.ar      1 <0>        -0.5780
      4 C3          2.3087    0.0536   -0.0197 C.ar      1 <0>         0.5800
      5 N2          1.1777   -0.6333   -0.0130 N.ar      1 <0>        -0.5626
      6 C4          0.0021   -0.0041    0.0020 C.ar      1 <0>         0.3010
      7 C5         -1.2594   -0.7714    0.0104 C.2       1 <0>         0.0098
      8 C6         -1.3648   -2.1320    0.0101 C.2       1 <0>        -0.0391
      9 C7         -2.7321   -2.4306    0.0198 C.2       1 <0>        -0.2364
     10 C8         -3.4234   -1.2224    0.0240 C.2       1 <0>         0.0913
     11 N3         -2.5295   -0.2337    0.0259 N.pl3     1 <0>        -0.5038
     12 H1         -2.7388    0.7135    0.0340 H         1 <0>         0.4201
     13 C9         -4.9304   -1.1898    0.0294 C.3       1 <0>        -0.0335
     14 H2         -5.2917   -1.1695    1.0576 H         1 <0>         0.1085
     15 C10        -5.4530   -2.4435   -0.6727 C.3       1 <0>         0.1237
     16 N4         -4.7857   -3.6605   -0.2316 N.am      1 <0>        -0.7355
     17 C11        -3.4577   -3.7131    0.0273 C.2       1 <0>         0.5985
     18 O1         -2.8923   -4.7657    0.2543 O.2       1 <0>        -0.5280
     19 C12        -5.4189    0.0571   -0.7105 C.3       1 <0>        -0.1522
     20 C13        -6.9416    0.1537   -0.5967 C.3       1 <0>         0.0602
     21 F1         -7.3883    1.2939   -1.2733 F         1 <0>        -0.2138
     22 N5          3.5123   -0.6297   -0.0349 N.pl3     1 <0>        -0.8179
     23 H3         -0.9521    1.9360    0.0260 H         1 <0>         0.1360
     24 H4          1.2108    3.1502    0.0071 H         1 <0>         0.1710
     25 H5         -0.5504   -2.8414    0.0031 H         1 <0>         0.1599
     26 H6         -6.5208   -2.5372   -0.4753 H         1 <0>         0.0951
     27 H7         -5.3053   -2.3318   -1.7469 H         1 <0>         0.0715
     28 H8         -5.3141   -4.4661   -0.1183 H         1 <0>         0.4052
     29 H9         -4.9645    0.9435   -0.2681 H         1 <0>         0.0802
     30 H10        -5.1366   -0.0100   -1.7612 H         1 <0>         0.0887
     31 H11        -7.3960   -0.7327   -1.0392 H         1 <0>         0.0812
     32 H12        -7.2239    0.2208    0.4539 H         1 <0>         0.0802
     33 H13         4.3488   -0.1386   -0.0402 H         1 <0>         0.4168
     34 H14         3.5193   -1.5997   -0.0401 H         1 <0>         0.4166
@<TRIPOS>BOND
     1    1    6 ar
     2    1    2 ar
     3    1   23 1
     4    2    3 ar
     5    2   24 1
     6    3    4 ar
     7    4    5 ar
     8    4   22 1
     9    5    6 ar
    10    6    7 1
    11    7   11 1
    12    7    8 2
    13    8    9 1
    14    8   25 1
    15    9   17 1
    16    9   10 2
    17   10   11 1
    18   10   13 1
    19   11   12 1
    20   13   14 1
    21   13   15 1
    22   13   19 1
    23   15   16 1
    24   15   26 1
    25   15   27 1
    26   16   17 am
    27   16   28 1
    28   17   18 2
    29   19   20 1
    30   19   29 1
    31   19   30 1
    32   20   21 1
    33   20   31 1
    34   20   32 1
    35   22   33 1
    36   22   34 1
@<TRIPOS>MOLECULE
CHEMBL511410
   40    42     0     0     0
SMALL
NO_CHARGES

@<TRIPOS>ATOM
      1 C1         -0.0167    1.3770    0.0096 C.ar      1 <0>        -0.1031
      2 C2          1.1707    2.0858    0.0021 C.ar      1 <0>        -0.0925
      3 C3          2.3791    1.4145   -0.0130 C.ar      1 <0>        -0.0687
      4 C4          2.4032    0.0331   -0.0211 C.ar      1 <0>        -0.1355
      5 C5          1.2136   -0.6802   -0.0135 C.ar      1 <0>         0.1068
      6 C6          0.0021   -0.0041    0.0020 C.ar      1 <0>        -0.1364
      7 O1          1.2347   -2.0390   -0.0215 O.3       1 <0>        -0.4966
      8 C7          3.6712    2.1901   -0.0212 C.3       1 <0>         0.0828
      9 C8          3.9882    2.6527    1.3776 C.2       1 <0>         0.5319
     10 O2          4.0919    3.8374    1.6156 O.2       1 <0>        -0.5168
     11 N1          4.1567    1.7499    2.3640 N.am      1 <0>        -0.8490
     12 N2          3.5369    3.3534   -0.9016 N.2       1 <0>        -0.3984
     13 C9          4.3173    3.4844   -1.9213 C.2       1 <0>         0.0742
     14 C10         4.5067    4.4969   -3.0301 C.3       1 <0>         0.1474
     15 C11         5.9345    3.9987   -3.0909 C.2       1 <0>         0.2637
     16 O3          7.0025    4.4438   -3.4377 O.2       1 <0>        -0.3960
     17 C12         5.4341    2.7114   -2.5253 C.2       1 <0>         0.2422
     18 O4          5.7851    1.5508   -2.5479 O.2       1 <0>        -0.4093
     19 N3          3.7270    4.2065   -4.2359 N.pl3     1 <0>        -0.6618
     20 C13         3.3753    5.2374   -5.1021 C.ar      1 <0>         0.1309
     21 C14         3.7606    6.5526   -4.8429 C.ar      1 <0>        -0.1620
     22 C15         3.3922    7.5451   -5.7266 C.ar      1 <0>         0.0653
     23 N4          2.6850    7.2629   -6.8048 N.ar      1 <0>        -0.5398
     24 C16         2.3010    6.0315   -7.0848 C.ar      1 <0>         0.0685
     25 C17         2.6333    4.9814   -6.2551 C.ar      1 <0>        -0.1625
     26 H1         -0.9594    1.9037    0.0259 H         1 <0>         0.1315
     27 H2          1.1540    3.1657    0.0076 H         1 <0>         0.1366
     28 H3          3.3475   -0.4909   -0.0336 H         1 <0>         0.1318
     29 H4         -0.9255   -0.5572    0.0082 H         1 <0>         0.1312
     30 H5          1.2494   -2.4373    0.8596 H         1 <0>         0.3918
     31 H6          4.4763    1.5510   -0.3838 H         1 <0>         0.0960
     32 H7          4.0738    0.8024    2.1736 H         1 <0>         0.4015
     33 H8          4.3607    2.0477    3.2643 H         1 <0>         0.4071
     34 H9          4.4154    5.5321   -2.7012 H         1 <0>         0.1349
     35 H10         4.3389    6.7904   -3.9624 H         1 <0>         0.1467
     36 H11         3.6858    8.5664   -5.5338 H         1 <0>         0.1679
     37 H12         1.7229    5.8433   -7.9774 H         1 <0>         0.1671
     38 H13         2.3201    3.9755   -6.4926 H         1 <0>         0.1439
     39 H14         3.4558    3.2957   -4.4304 H         1 <0>         0.4055
     40 H15         2.4402    7.9814   -7.4087 H         1 <0>         0.4212
@<TRIPOS>BOND
     1    1    6 ar
     2    1    2 ar
     3    1   26 1
     4    2    3 ar
     5    2   27 1
     6    3    4 ar
     7    3    8 1
     8    4    5 ar
     9    4   28 1
    10    5    6 ar
    11    5    7 1
    12    6   29 1
    13    7   30 1
    14    8    9 1
    15    8   31 1
    16    8   12 1
    17    9   10 2
    18    9   11 am
    19   11   32 1
    20   11   33 1
    21   12   13 2
    22   13   17 1
    23   13   14 1
    24   14   15 1
    25   14   34 1
    26   14   19 1
    27   15   16 2
    28   15   17 1
    29   17   18 2
    30   19   20 1
    31   19   39 1
    32   20   25 ar
    33   20   21 ar
    34   21   22 ar
    35   21   35 1
    36   22   23 ar
    37   22   36 1
    38   23   24 ar
    39   23   40 1
    40   24   25 ar
    41   24   37 1
    42   25   38 1
@<TRIPOS>MOLECULE
CHEMBL511410__1
   39    41     0     0     0
SMALL
NO_CHARGES

@<TRIPOS>ATOM
      1 C1         -0.0167    1.3770    0.0096 C.ar      1 <0>        -0.0988
      2 C2          1.1707    2.0858    0.0021 C.ar      1 <0>        -0.0933
      3 C3          2.3791    1.4145   -0.0130 C.ar      1 <0>        -0.0827
      4 C4          2.4032    0.0331   -0.0211 C.ar      1 <0>        -0.1353
      5 C5          1.2136   -0.6802   -0.0135 C.ar      1 <0>         0.1103
      6 C6          0.0021   -0.0041    0.0020 C.ar      1 <0>        -0.1305
      7 O1          1.2347   -2.0390   -0.0215 O.3       1 <0>        -0.4954
      8 C7          3.6712    2.1901   -0.0212 C.3       1 <0>         0.0776
      9 C8          3.9882    2.6527    1.3776 C.2       1 <0>         0.5355
     10 O2          4.0919    3.8374    1.6156 O.2       1 <0>        -0.5123
     11 N1          4.1567    1.7499    2.3640 N.am      1 <0>        -0.8439
     12 N2          3.5369    3.3534   -0.9016 N.2       1 <0>        -0.3412
     13 C9          4.3173    3.4844   -1.9213 C.2       1 <0>         0.0799
     14 C10         5.4499    2.6940   -2.5401 C.3       1 <0>         0.0867
     15 C11         5.0629    3.3671   -3.8391 C.2       1 <0>         0.3291
     16 O3          5.1616    3.1179   -5.0169 O.2       1 <0>        -0.3348
     17 C12         4.4990    4.4756   -3.0141 C.2       1 <0>         0.3592
     18 O4          4.2837    5.6590   -3.1687 O.2       1 <0>        -0.3344
     19 N3          6.7758    3.0762   -2.0480 N.pl3     1 <0>        -0.7030
     20 C13         7.8245    2.1624   -2.0925 C.ar      1 <0>         0.2430
     21 C14         7.6348    0.8800   -2.6072 C.ar      1 <0>        -0.2466
     22 C15         8.6999    0.0046   -2.6340 C.ar      1 <0>         0.1425
     23 N4          9.8854    0.3671   -2.1809 N.ar      1 <0>        -0.5179
     24 C16        10.1051    1.5710   -1.6863 C.ar      1 <0>         0.1416
     25 C17         9.0940    2.5070   -1.6289 C.ar      1 <0>        -0.2352
     26 H1         -0.9594    1.9037    0.0259 H         1 <0>         0.1349
     27 H2          1.1540    3.1657    0.0076 H         1 <0>         0.1375
     28 H3          3.3475   -0.4909   -0.0336 H         1 <0>         0.1334
     29 H4         -0.9255   -0.5572    0.0082 H         1 <0>         0.1345
     30 H5          1.2494   -2.4373    0.8596 H         1 <0>         0.3941
     31 H6          4.4763    1.5510   -0.3838 H         1 <0>         0.1007
     32 H7          4.0738    0.8024    2.1736 H         1 <0>         0.4030
     33 H8          4.3607    2.0477    3.2643 H         1 <0>         0.4114
     34 H9          5.2874    1.6162   -2.5373 H         1 <0>         0.1492
     35 H10         6.6673    0.5769   -2.9793 H         1 <0>         0.1334
     36 H11         8.5622   -0.9905   -3.0305 H         1 <0>         0.1580
     37 H12        11.0903    1.8277   -1.3259 H         1 <0>         0.1587
     38 H13         9.2817    3.4918   -1.2273 H         1 <0>         0.1361
     39 H14         6.9228    3.9661   -1.6911 H         1 <0>         0.4149
@<TRIPOS>BOND
     1    1    6 ar
     2    1    2 ar
     3    1   26 1
     4    2    3 ar
     5    2   27 1
     6    3    4 ar
     7    3    8 1
     8    4    5 ar
     9    4   28 1
    10    5    6 ar
    11    5    7 1
    12    6   29 1
    13    7   30 1
    14    8    9 1
    15    8   31 1
    16    8   12 1
    17    9   10 2
    18    9   11 am
    19   11   32 1
    20   11   33 1
    21   12   13 2
    22   13   17 1
    23   13   14 1
    24   14   15 1
    25   14   34 1
    26   14   19 1
    27   15   16 2
    28   15   17 1
    29   17   18 2
    30   19   20 1
    31   19   39 1
    32   20   25 ar
    33   20   21 ar
    34   21   22 ar
    35   21   35 1
    36   22   23 ar
    37   22   36 1
    38   23   24 ar
    39   24   25 ar
    40   24   37 1
    41   25   38 1
@<TRIPOS>MOLECULE
CHEMBL511410__2
   39    41     0     0     0
SMALL
NO_CHARGES

@<TRIPOS>ATOM
      1 C1         -0.0167    1.3770    0.0096 C.ar      1 <0>        -0.0995
      2 C2          1.1707    2.0858    0.0021 C.ar      1 <0>        -0.0931
      3 C3          2.3791    1.4145   -0.0130 C.ar      1 <0>        -0.0792
      4 C4          2.4032    0.0331   -0.0211 C.ar      1 <0>        -0.1335
      5 C5          1.2136   -0.6802   -0.0135 C.ar      1 <0>         0.1102
      6 C6          0.0021   -0.0041    0.0020 C.ar      1 <0>        -0.1304
      7 O1          1.2347   -2.0390   -0.0215 O.3       1 <0>        -0.4953
      8 C7          3.6712    2.1901   -0.0212 C.3       1 <0>         0.0731
      9 C8          3.9882    2.6527    1.3776 C.2       1 <0>         0.5341
     10 O2          4.0919    3.8374    1.6156 O.2       1 <0>        -0.5124
     11 N1          4.1567    1.7499    2.3640 N.am      1 <0>        -0.8437
     12 N2          3.5369    3.3534   -0.9016 N.2       1 <0>        -0.3386
     13 C9          4.3173    3.4844   -1.9213 C.2       1 <0>         0.0821
     14 C10         4.5067    4.4969   -3.0301 C.3       1 <0>         0.1508
     15 C11         5.9345    3.9987   -3.0909 C.2       1 <0>         0.3203
     16 O3          7.0025    4.4438   -3.4377 O.2       1 <0>        -0.3355
     17 C12         5.4341    2.7114   -2.5253 C.2       1 <0>         0.3012
     18 O4          5.7851    1.5508   -2.5479 O.2       1 <0>        -0.3502
     19 N3          3.7270    4.2065   -4.2359 N.pl3     1 <0>        -0.7025
     20 C13         3.3753    5.2374   -5.1021 C.ar      1 <0>         0.2449
     21 C14         3.7606    6.5526   -4.8429 C.ar      1 <0>        -0.2425
     22 C15         3.3922    7.5451   -5.7266 C.ar      1 <0>         0.1419
     23 N4          2.6850    7.2629   -6.8048 N.ar      1 <0>        -0.5185
     24 C16         2.3013    6.0314   -7.0850 C.ar      1 <0>         0.1402
     25 C17         2.6333    4.9814   -6.2551 C.ar      1 <0>        -0.2353
     26 H1         -0.9594    1.9037    0.0259 H         1 <0>         0.1350
     27 H2          1.1540    3.1657    0.0076 H         1 <0>         0.1377
     28 H3          3.3475   -0.4909   -0.0336 H         1 <0>         0.1334
     29 H4         -0.9255   -0.5572    0.0082 H         1 <0>         0.1346
     30 H5          1.2494   -2.4373    0.8596 H         1 <0>         0.3940
     31 H6          4.4763    1.5510   -0.3838 H         1 <0>         0.1018
     32 H7          4.0738    0.8024    2.1736 H         1 <0>         0.4034
     33 H8          4.3607    2.0477    3.2643 H         1 <0>         0.4118
     34 H9          4.4154    5.5321   -2.7012 H         1 <0>         0.1599
     35 H10         4.3389    6.7904   -3.9624 H         1 <0>         0.1360
     36 H11         3.6858    8.5664   -5.5338 H         1 <0>         0.1583
     37 H12         1.7236    5.8432   -7.9778 H         1 <0>         0.1579
     38 H13         2.3201    3.9755   -6.4926 H         1 <0>         0.1352
     39 H14         3.4558    3.2957   -4.4304 H         1 <0>         0.4125
@<TRIPOS>BOND
     1    1    6 ar
     2    1    2 ar
     3    1   26 1
     4    2    3 ar
     5    2   27 1
     6    3    4 ar
     7    3    8 1
     8    4    5 ar
     9    4   28 1
    10    5    6 ar
    11    5    7 1
    12    6   29 1
    13    7   30 1
    14    8    9 1
    15    8   31 1
    16    8   12 1
    17    9   10 2
    18    9   11 am
    19   11   32 1
    20   11   33 1
    21   12   13 2
    22   13   17 1
    23   13   14 1
    24   14   15 1
    25   14   34 1
    26   14   19 1
    27   15   16 2
    28   15   17 1
    29   17   18 2
    30   19   20 1
    31   19   39 1
    32   20   25 ar
    33   20   21 ar
    34   21   22 ar
    35   21   35 1
    36   22   23 ar
    37   22   36 1
    38   23   24 ar
    39   24   25 ar
    40   24   37 1
    41   25   38 1
@<TRIPOS>MOLECULE
CHEMBL511410__3
   39    41     0     0     0
SMALL
NO_CHARGES

@<TRIPOS>ATOM
      1 C1         -0.0167    1.3770    0.0096 C.ar      1 <0>        -0.0989
      2 C2          1.1707    2.0858    0.0021 C.ar      1 <0>        -0.0925
      3 C3          2.3791    1.4145   -0.0130 C.ar      1 <0>        -0.0783
      4 C4          2.4032    0.0331   -0.0211 C.ar      1 <0>        -0.1369
      5 C5          1.2136   -0.6802   -0.0135 C.ar      1 <0>         0.1079
      6 C6          0.0021   -0.0041    0.0020 C.ar      1 <0>        -0.1329
      7 O1          1.2347   -2.0390   -0.0215 O.3       1 <0>        -0.4959
      8 C7          3.6712    2.1901   -0.0212 C.3       1 <0>         0.0823
      9 C8          3.9882    2.6527    1.3776 C.2       1 <0>         0.5346
     10 O2          4.0919    3.8374    1.6156 O.2       1 <0>        -0.5086
     11 N1          4.1567    1.7499    2.3640 N.am      1 <0>        -0.8477
     12 N2          3.5369    3.3534   -0.9016 N.2       1 <0>        -0.3709
     13 C9          4.3173    3.4844   -1.9213 C.2       1 <0>         0.1084
     14 C10         5.4499    2.6940   -2.5401 C.3       1 <0>         0.0040
     15 C11         5.0629    3.3671   -3.8391 C.2       1 <0>         0.3598
     16 O3          5.1616    3.1179   -5.0169 O.2       1 <0>        -0.3542
     17 C12         4.4990    4.4756   -3.0141 C.2       1 <0>         0.3810
     18 O4          4.2837    5.6590   -3.1687 O.2       1 <0>        -0.3473
     19 N3          6.7758    3.0762   -2.0480 N.2       1 <0>        -0.5387
     20 C13         7.5391    2.1825   -1.4429 C.2       1 <0>         0.2635
     21 C14         7.0913    0.7951   -1.2524 C.2       1 <0>        -0.2841
     22 C15         7.7867    0.0156   -0.3995 C.2       1 <0>         0.1444
     23 N4          8.8669    0.5063    0.2673 N.pl3     1 <0>        -0.6167
     24 C16         9.4781    1.6673   -0.0939 C.2       1 <0>         0.1179
     25 C17         8.8746    2.5317   -0.9369 C.2       1 <0>        -0.1874
     26 H1         -0.9594    1.9037    0.0259 H         1 <0>         0.1343
     27 H2          1.1540    3.1657    0.0076 H         1 <0>         0.1379
     28 H3          3.3475   -0.4909   -0.0336 H         1 <0>         0.1307
     29 H4         -0.9255   -0.5572    0.0082 H         1 <0>         0.1334
     30 H5          1.2494   -2.4373    0.8596 H         1 <0>         0.3923
     31 H6          4.4763    1.5510   -0.3838 H         1 <0>         0.0941
     32 H7          4.0738    0.8024    2.1736 H         1 <0>         0.4004
     33 H8          4.3607    2.0477    3.2643 H         1 <0>         0.4087
     34 H9          5.2874    1.6162   -2.5373 H         1 <0>         0.1111
     35 H10         6.2305    0.4115   -1.7798 H         1 <0>         0.1423
     36 H11         7.4830   -1.0091   -0.2437 H         1 <0>         0.1622
     37 H12        10.4594    1.8975    0.2941 H         1 <0>         0.1678
     38 H13         9.3554    3.4541   -1.2276 H         1 <0>         0.1536
     39 H14         9.2128    0.0115    1.0265 H         1 <0>         0.4183
@<TRIPOS>BOND
     1    1    6 ar
     2    1    2 ar
     3    1   26 1
     4    2    3 ar
     5    2   27 1
     6    3    4 ar
     7    3    8 1
     8    4    5 ar
     9    4   28 1
    10    5    6 ar
    11    5    7 1
    12    6   29 1
    13    7   30 1
    14    8    9 1
    15    8   31 1
    16    8   12 1
    17    9   10 2
    18    9   11 am
    19   11   32 1
    20   11   33 1
    21   12   13 2
    22   13   17 1
    23   13   14 1
    24   14   15 1
    25   14   19 1
    26   14   34 1
    27   15   16 2
    28   15   17 1
    29   17   18 2
    30   19   20 2
    31   20   25 1
    32   20   21 1
    33   21   22 2
    34   21   35 1
    35   22   23 1
    36   22   36 1
    37   23   24 1
    38   23   39 1
    39   24   25 2
    40   24   37 1
    41   25   38 1
@<TRIPOS>MOLECULE
CHEMBL511410__4
   39    41     0     0     0
SMALL
NO_CHARGES

@<TRIPOS>ATOM
      1 C1         -0.0167    1.3770    0.0096 C.ar      1 <0>        -0.1016
      2 C2          1.1707    2.0858    0.0021 C.ar      1 <0>        -0.0921
      3 C3          2.3791    1.4145   -0.0130 C.ar      1 <0>        -0.0733
      4 C4          2.4032    0.0331   -0.0211 C.ar      1 <0>        -0.1335
      5 C5          1.2136   -0.6802   -0.0135 C.ar      1 <0>         0.1090
      6 C6          0.0021   -0.0041    0.0020 C.ar      1 <0>        -0.1331
      7 O1          1.2347   -2.0390   -0.0215 O.3       1 <0>        -0.4953
      8 C7          3.6712    2.1901   -0.0212 C.3       1 <0>         0.0755
      9 C8          3.9882    2.6527    1.3776 C.2       1 <0>         0.5341
     10 O2          4.0919    3.8374    1.6156 O.2       1 <0>        -0.5149
     11 N1          4.1567    1.7499    2.3640 N.am      1 <0>        -0.8458
     12 N2          3.5369    3.3534   -0.9016 N.2       1 <0>        -0.3692
     13 C9          4.3173    3.4844   -1.9213 C.2       1 <0>         0.1114
     14 C10         4.5067    4.4969   -3.0301 C.3       1 <0>         0.0669
     15 C11         5.9345    3.9987   -3.0909 C.2       1 <0>         0.3500
     16 O3          7.0025    4.4438   -3.4377 O.2       1 <0>        -0.3565
     17 C12         5.4341    2.7114   -2.5253 C.2       1 <0>         0.3230
     18 O4          5.7851    1.5508   -2.5479 O.2       1 <0>        -0.3641
     19 N3          3.7270    4.2065   -4.2359 N.2       1 <0>        -0.5503
     20 C13         2.8339    5.0784   -4.6713 C.2       1 <0>         0.2738
     21 C14         2.6020    6.3516   -3.9737 C.2       1 <0>        -0.2708
     22 C15         1.5045    7.0636   -4.3012 C.2       1 <0>         0.1404
     23 N4          0.6373    6.6086   -5.2462 N.pl3     1 <0>        -0.6169
     24 C16         0.9605    5.6046   -6.1061 C.2       1 <0>         0.1216
     25 C17         2.0343    4.8192   -5.8776 C.2       1 <0>        -0.1938
     26 H1         -0.9594    1.9037    0.0259 H         1 <0>         0.1326
     27 H2          1.1540    3.1657    0.0076 H         1 <0>         0.1358
     28 H3          3.3475   -0.4909   -0.0336 H         1 <0>         0.1330
     29 H4         -0.9255   -0.5572    0.0082 H         1 <0>         0.1330
     30 H5          1.2494   -2.4373    0.8596 H         1 <0>         0.3925
     31 H6          4.4763    1.5510   -0.3838 H         1 <0>         0.0986
     32 H7          4.0738    0.8024    2.1736 H         1 <0>         0.4028
     33 H8          4.3607    2.0477    3.2643 H         1 <0>         0.4097
     34 H9          4.4154    5.5321   -2.7012 H         1 <0>         0.1212
     35 H10         3.2902    6.7062   -3.2207 H         1 <0>         0.1465
     36 H11         1.3115    8.0048   -3.8079 H         1 <0>         0.1625
     37 H12         0.3543    5.4374   -6.9841 H         1 <0>         0.1669
     38 H13         2.2959    4.0215   -6.5570 H         1 <0>         0.1522
     39 H14        -0.2418    7.0138   -5.3087 H         1 <0>         0.4181
@<TRIPOS>BOND
     1    1    6 ar
     2    1    2 ar
     3    1   26 1
     4    2    3 ar
     5    2   27 1
     6    3    4 ar
     7    3    8 1
     8    4    5 ar
     9    4   28 1
    10    5    6 ar
    11    5    7 1
    12    6   29 1
    13    7   30 1
    14    8    9 1
    15    8   31 1
    16    8   12 1
    17    9   10 2
    18    9   11 am
    19   11   32 1
    20   11   33 1
    21   12   13 2
    22   13   17 1
    23   13   14 1
    24   14   15 1
    25   14   19 1
    26   14   34 1
    27   15   16 2
    28   15   17 1
    29   17   18 2
    30   19   20 2
    31   20   25 1
    32   20   21 1
    33   21   22 2
    34   21   35 1
    35   22   23 1
    36   22   36 1
    37   23   24 1
    38   23   39 1
    39   24   25 2
    40   24   37 1
    41   25   38 1
@<TRIPOS>MOLECULE
CHEMBL511410__5
   40    42     0     0     0
SMALL
NO_CHARGES

@<TRIPOS>ATOM
      1 C1         -0.0167    1.3770    0.0096 C.ar      1 <0>        -0.1003
      2 C2          1.1707    2.0858    0.0021 C.ar      1 <0>        -0.0920
      3 C3          2.3791    1.4145   -0.0130 C.ar      1 <0>        -0.0766
      4 C4          2.4032    0.0331   -0.0211 C.ar      1 <0>        -0.1372
      5 C5          1.2136   -0.6802   -0.0135 C.ar      1 <0>         0.1069
      6 C6          0.0021   -0.0041    0.0020 C.ar      1 <0>        -0.1340
      7 O1          1.2347   -2.0390   -0.0215 O.3       1 <0>        -0.4964
      8 C7          3.6712    2.1901   -0.0212 C.3       1 <0>         0.0837
      9 C8          3.9882    2.6527    1.3776 C.2       1 <0>         0.5337
     10 O2          4.0919    3.8374    1.6156 O.2       1 <0>        -0.5134
     11 N1          4.1567    1.7499    2.3640 N.am      1 <0>        -0.8482
     12 N2          3.5369    3.3534   -0.9016 N.2       1 <0>        -0.3790
     13 C9          4.3173    3.4844   -1.9213 C.2       1 <0>         0.0789
     14 C10         5.4499    2.6940   -2.5401 C.3       1 <0>         0.0906
     15 C11         5.0629    3.3671   -3.8391 C.2       1 <0>         0.2881
     16 O3          5.1616    3.1179   -5.0169 O.2       1 <0>        -0.3771
     17 C12         4.4990    4.4756   -3.0141 C.2       1 <0>         0.3230
     18 O4          4.2837    5.6590   -3.1687 O.2       1 <0>        -0.3743
     19 N3          6.7758    3.0762   -2.0480 N.pl3     1 <0>        -0.6688
     20 C13         7.8245    2.1624   -2.0925 C.ar      1 <0>         0.0805
     21 C14         7.6348    0.8800   -2.6072 C.ar      1 <0>        -0.1550
     22 C15         8.6999    0.0046   -2.6340 C.ar      1 <0>         0.0444
     23 N4          9.8854    0.3671   -2.1809 N.ar      1 <0>        -0.5497
     24 C16        10.1050    1.5709   -1.6859 C.ar      1 <0>         0.0458
     25 C17         9.0940    2.5070   -1.6289 C.ar      1 <0>        -0.1492
     26 H1         -0.9594    1.9037    0.0259 H         1 <0>         0.1332
     27 H2          1.1540    3.1657    0.0076 H         1 <0>         0.1375
     28 H3          3.3475   -0.4909   -0.0336 H         1 <0>         0.1312
     29 H4         -0.9255   -0.5572    0.0082 H         1 <0>         0.1324
     30 H5          1.2494   -2.4373    0.8596 H         1 <0>         0.3920
     31 H6          4.4763    1.5510   -0.3838 H         1 <0>         0.0950
     32 H7          4.0738    0.8024    2.1736 H         1 <0>         0.4011
     33 H8          4.3607    2.0477    3.2643 H         1 <0>         0.4079
     34 H9          5.2874    1.6162   -2.5373 H         1 <0>         0.1301
     35 H10         6.9228    3.9661   -1.6911 H         1 <0>         0.4061
     36 H11         6.6673    0.5769   -2.9793 H         1 <0>         0.1362
     37 H12         8.5622   -0.9905   -3.0305 H         1 <0>         0.1596
     38 H13        11.0901    1.8275   -1.3252 H         1 <0>         0.1599
     39 H14         9.2817    3.4918   -1.2273 H         1 <0>         0.1370
     40 H15        10.6165   -0.2697   -2.2122 H         1 <0>         0.4164
@<TRIPOS>BOND
     1    1    6 ar
     2    1    2 ar
     3    1   26 1
     4    2    3 ar
     5    2   27 1
     6    3    4 ar
     7    3    8 1
     8    4    5 ar
     9    4   28 1
    10    5    6 ar
    11    5    7 1
    12    6   29 1
    13    7   30 1
    14    8    9 1
    15    8   31 1
    16    8   12 1
    17    9   10 2
    18    9   11 am
    19   11   32 1
    20   11   33 1
    21   12   13 2
    22   13   17 1
    23   13   14 1
    24   14   15 1
    25   14   19 1
    26   14   34 1
    27   15   16 2
    28   15   17 1
    29   17   18 2
    30   19   20 1
    31   19   35 1
    32   20   25 ar
    33   20   21 ar
    34   21   22 ar
    35   21   36 1
    36   22   23 ar
    37   22   37 1
    38   23   24 ar
    39   23   40 1
    40   24   25 ar
    41   24   38 1
    42   25   39 1
@<TRIPOS>MOLECULE
CHEMBL511410__6
   40    42     0     0     0
SMALL
NO_CHARGES

@<TRIPOS>ATOM
      1 C1         -0.0167    1.3770    0.0096 C.ar      1 <0>        -0.1027
      2 C2          1.1707    2.0858    0.0021 C.ar      1 <0>        -0.0929
      3 C3          2.3791    1.4145   -0.0130 C.ar      1 <0>        -0.0720
      4 C4          2.4032    0.0331   -0.0211 C.ar      1 <0>        -0.1376
      5 C5          1.2136   -0.6802   -0.0135 C.ar      1 <0>         0.1069
      6 C6          0.0021   -0.0041    0.0020 C.ar      1 <0>        -0.1366
      7 O1          1.2347   -2.0390   -0.0215 O.3       1 <0>        -0.4976
      8 C7          3.6712    2.1901   -0.0212 C.3       1 <0>         0.0837
      9 C8          3.9616    2.6677   -1.4207 C.2       1 <0>         0.5358
     10 O2          4.0608    3.8548   -1.6480 O.2       1 <0>        -0.5193
     11 N1          4.1111    1.7754   -2.4198 N.am      1 <0>        -0.8484
     12 N2          3.5538    3.3439    0.8740 N.2       1 <0>        -0.4020
     13 C9          4.3535    3.4641    1.8799 C.2       1 <0>         0.0716
     14 C10         4.5555    4.4579    3.0034 C.3       1 <0>         0.1470
     15 C11         5.1500    3.2987    3.7737 C.2       1 <0>         0.2584
     16 O3          5.2904    3.0005    4.9357 O.2       1 <0>        -0.4015
     17 C12         5.4815    2.6849    2.4543 C.2       1 <0>         0.2368
     18 O4          6.3051    1.8981    2.0377 O.2       1 <0>        -0.4156
     19 N3          5.5187    5.5165    2.6907 N.pl3     1 <0>        -0.6596
     20 C13         5.4419    6.7425    3.3448 C.ar      1 <0>         0.1441
     21 C14         4.4589    6.9808    4.3052 C.ar      1 <0>        -0.1650
     22 C15         4.4172    8.2090    4.9307 C.ar      1 <0>         0.0707
     23 N4          5.2915    9.1513    4.6306 N.ar      1 <0>        -0.5375
     24 C16         6.2360    8.9647    3.7276 C.ar      1 <0>         0.0746
     25 C17         6.3494    7.7629    3.0611 C.ar      1 <0>        -0.1653
     26 H1         -0.9594    1.9037    0.0259 H         1 <0>         0.1319
     27 H2          1.1540    3.1657    0.0076 H         1 <0>         0.1369
     28 H3          3.3475   -0.4909   -0.0336 H         1 <0>         0.1310
     29 H4         -0.9255   -0.5572    0.0082 H         1 <0>         0.1314
     30 H5          1.2494   -2.4373    0.8596 H         1 <0>         0.3929
     31 H6          4.4830    1.5473    0.3191 H         1 <0>         0.0955
     32 H7          4.0318    0.8259   -2.2380 H         1 <0>         0.4025
     33 H8          4.2980    2.0828   -3.3206 H         1 <0>         0.4069
     34 H9          3.6259    4.8376    3.4276 H         1 <0>         0.1323
     35 H10         3.7403    6.2143    4.5551 H         1 <0>         0.1483
     36 H11         3.6593    8.4025    5.6754 H         1 <0>         0.1697
     37 H12         6.9316    9.7621    3.5113 H         1 <0>         0.1693
     38 H13         7.1276    7.6152    2.3270 H         1 <0>         0.1461
     39 H14         6.2100    5.3629    2.0278 H         1 <0>         0.4067
     40 H15         5.2382   10.0057    5.0868 H         1 <0>         0.4224
@<TRIPOS>BOND
     1    1    6 ar
     2    1    2 ar
     3    1   26 1
     4    2    3 ar
     5    2   27 1
     6    3    4 ar
     7    3    8 1
     8    4    5 ar
     9    4   28 1
    10    5    6 ar
    11    5    7 1
    12    6   29 1
    13    7   30 1
    14    8    9 1
    15    8   31 1
    16    8   12 1
    17    9   10 2
    18    9   11 am
    19   11   32 1
    20   11   33 1
    21   12   13 2
    22   13   17 1
    23   13   14 1
    24   14   15 1
    25   14   34 1
    26   14   19 1
    27   15   16 2
    28   15   17 1
    29   17   18 2
    30   19   20 1
    31   19   39 1
    32   20   25 ar
    33   20   21 ar
    34   21   22 ar
    35   21   35 1
    36   22   23 ar
    37   22   36 1
    38   23   24 ar
    39   23   40 1
    40   24   25 ar
    41   24   37 1
    42   25   38 1
@<TRIPOS>MOLECULE
CHEMBL511410__7
   39    41     0     0     0
SMALL
NO_CHARGES

@<TRIPOS>ATOM
      1 C1         -0.0167    1.3770    0.0096 C.ar      1 <0>        -0.0991
      2 C2          1.1707    2.0858    0.0021 C.ar      1 <0>        -0.0917
      3 C3          2.3791    1.4145   -0.0130 C.ar      1 <0>        -0.0725
      4 C4          2.4032    0.0331   -0.0211 C.ar      1 <0>        -0.1314
      5 C5          1.2136   -0.6802   -0.0135 C.ar      1 <0>         0.1060
      6 C6          0.0021   -0.0041    0.0020 C.ar      1 <0>        -0.1326
      7 O1          1.2347   -2.0390   -0.0215 O.3       1 <0>        -0.4960
      8 C7          3.6712    2.1901   -0.0212 C.3       1 <0>         0.0826
      9 C8          3.9616    2.6677   -1.4207 C.2       1 <0>         0.5302
     10 O2          4.0608    3.8548   -1.6480 O.2       1 <0>        -0.5115
     11 N1          4.1111    1.7754   -2.4198 N.am      1 <0>        -0.8465
     12 N2          3.5538    3.3439    0.8740 N.2       1 <0>        -0.3709
     13 C9          4.3535    3.4641    1.8799 C.2       1 <0>         0.1094
     14 C10         5.5063    2.6742    2.4608 C.3       1 <0>         0.0043
     15 C11         5.9782    3.9937    3.0323 C.2       1 <0>         0.3596
     16 O3          7.0334    4.4717    3.3743 O.2       1 <0>        -0.3539
     17 C12         4.5561    4.4436    2.9796 C.2       1 <0>         0.3811
     18 O4          3.8716    5.2513    3.5711 O.2       1 <0>        -0.3485
     19 N3          5.1028    1.6997    3.4776 N.2       1 <0>        -0.5381
     20 C13         5.3510    0.4141    3.2963 C.2       1 <0>         0.2650
     21 C14         6.0354   -0.0718    2.0892 C.2       1 <0>        -0.2829
     22 C15         6.0142   -1.3965    1.8378 C.2       1 <0>         0.1443
     23 N4          5.3710   -2.2531    2.6773 N.pl3     1 <0>        -0.6163
     24 C16         4.9864   -1.8900    3.9313 C.2       1 <0>         0.1182
     25 C17         4.9599   -0.5907    4.2959 C.2       1 <0>        -0.1879
     26 H1         -0.9594    1.9037    0.0259 H         1 <0>         0.1341
     27 H2          1.1540    3.1657    0.0076 H         1 <0>         0.1374
     28 H3          3.3475   -0.4909   -0.0336 H         1 <0>         0.1277
     29 H4         -0.9255   -0.5572    0.0082 H         1 <0>         0.1328
     30 H5          1.2494   -2.4373    0.8596 H         1 <0>         0.3903
     31 H6          4.4830    1.5473    0.3191 H         1 <0>         0.0940
     32 H7          4.0318    0.8259   -2.2380 H         1 <0>         0.4019
     33 H8          4.2980    2.0828   -3.3206 H         1 <0>         0.4098
     34 H9          6.1757    2.2554    1.7095 H         1 <0>         0.1093
     35 H10         6.5401    0.6123    1.4230 H         1 <0>         0.1412
     36 H11         6.5126   -1.7818    0.9606 H         1 <0>         0.1618
     37 H12         4.7040   -2.6503    4.6445 H         1 <0>         0.1673
     38 H13         4.6563   -0.2969    5.2898 H         1 <0>         0.1528
     39 H14         5.1799   -3.1535    2.3712 H         1 <0>         0.4186
@<TRIPOS>BOND
     1    1    6 ar
     2    1    2 ar
     3    1   26 1
     4    2    3 ar
     5    2   27 1
     6    3    4 ar
     7    3    8 1
     8    4    5 ar
     9    4   28 1
    10    5    6 ar
    11    5    7 1
    12    6   29 1
    13    7   30 1
    14    8    9 1
    15    8   31 1
    16    8   12 1
    17    9   10 2
    18    9   11 am
    19   11   32 1
    20   11   33 1
    21   12   13 2
    22   13   17 1
    23   13   14 1
    24   14   15 1
    25   14   19 1
    26   14   34 1
    27   15   16 2
    28   15   17 1
    29   17   18 2
    30   19   20 2
    31   20   25 1
    32   20   21 1
    33   21   22 2
    34   21   35 1
    35   22   23 1
    36   22   36 1
    37   23   24 1
    38   23   39 1
    39   24   25 2
    40   24   37 1
    41   25   38 1
@<TRIPOS>MOLECULE
CHEMBL511410__8
   39    41     0     0     0
SMALL
NO_CHARGES

@<TRIPOS>ATOM
      1 C1         -0.0167    1.3770    0.0096 C.ar      1 <0>        -0.1007
      2 C2          1.1707    2.0858    0.0021 C.ar      1 <0>        -0.0930
      3 C3          2.3791    1.4145   -0.0130 C.ar      1 <0>        -0.0769
      4 C4          2.4032    0.0331   -0.0211 C.ar      1 <0>        -0.1362
      5 C5          1.2136   -0.6802   -0.0135 C.ar      1 <0>         0.1092
      6 C6          0.0021   -0.0041    0.0020 C.ar      1 <0>        -0.1333
      7 O1          1.2347   -2.0390   -0.0215 O.3       1 <0>        -0.4965
      8 C7          3.6712    2.1901   -0.0212 C.3       1 <0>         0.0753
      9 C8          3.9616    2.6677   -1.4207 C.2       1 <0>         0.5369
     10 O2          4.0608    3.8548   -1.6480 O.2       1 <0>        -0.5142
     11 N1          4.1111    1.7754   -2.4198 N.am      1 <0>        -0.8455
     12 N2          3.5538    3.3439    0.8740 N.2       1 <0>        -0.3675
     13 C9          4.3535    3.4641    1.8799 C.2       1 <0>         0.1091
     14 C10         4.5555    4.4579    3.0034 C.3       1 <0>         0.0685
     15 C11         5.1500    3.2987    3.7737 C.2       1 <0>         0.3503
     16 O3          5.2904    3.0005    4.9357 O.2       1 <0>        -0.3571
     17 C12         5.4815    2.6849    2.4543 C.2       1 <0>         0.3227
     18 O4          6.3051    1.8981    2.0377 O.2       1 <0>        -0.3655
     19 N3          5.5187    5.5165    2.6907 N.2       1 <0>        -0.5511
     20 C13         5.1374    6.7822    2.7047 C.2       1 <0>         0.2756
     21 C14         3.7566    7.1633    3.0356 C.2       1 <0>        -0.2713
     22 C15         3.3658    8.4260    2.7687 C.2       1 <0>         0.1413
     23 N4          4.2271    9.3154    2.2036 N.pl3     1 <0>        -0.6165
     24 C16         5.5693    9.0964    2.1544 C.2       1 <0>         0.1218
     25 C17         6.0777    7.8695    2.3960 C.2       1 <0>        -0.1933
     26 H1         -0.9594    1.9037    0.0259 H         1 <0>         0.1337
     27 H2          1.1540    3.1657    0.0076 H         1 <0>         0.1372
     28 H3          3.3475   -0.4909   -0.0336 H         1 <0>         0.1326
     29 H4         -0.9255   -0.5572    0.0082 H         1 <0>         0.1333
     30 H5          1.2494   -2.4373    0.8596 H         1 <0>         0.3940
     31 H6          4.4830    1.5473    0.3191 H         1 <0>         0.0984
     32 H7          4.0318    0.8259   -2.2380 H         1 <0>         0.4033
     33 H8          4.2980    2.0828   -3.3206 H         1 <0>         0.4097
     34 H9          3.6259    4.8376    3.4276 H         1 <0>         0.1200
     35 H10         3.0750    6.4526    3.4792 H         1 <0>         0.1458
     36 H11         2.3583    8.7348    3.0056 H         1 <0>         0.1623
     37 H12         6.2360    9.9144    1.9246 H         1 <0>         0.1671
     38 H13         7.1420    7.6902    2.3591 H         1 <0>         0.1523
     39 H14         3.8719   10.1336    1.8224 H         1 <0>         0.4182
@<TRIPOS>BOND
     1    1    6 ar
     2    1    2 ar
     3    1   26 1
     4    2    3 ar
     5    2   27 1
     6    3    4 ar
     7    3    8 1
     8    4    5 ar
     9    4   28 1
    10    5    6 ar
    11    5    7 1
    12    6   29 1
    13    7   30 1
    14    8    9 1
    15    8   31 1
    16    8   12 1
    17    9   10 2
    18    9   11 am
    19   11   32 1
    20   11   33 1
    21   12   13 2
    22   13   17 1
    23   13   14 1
    24   14   15 1
    25   14   19 1
    26   14   34 1
    27   15   16 2
    28   15   17 1
    29   17   18 2
    30   19   20 2
    31   20   25 1
    32   20   21 1
    33   21   22 2
    34   21   35 1
    35   22   23 1
    36   22   36 1
    37   23   24 1
    38   23   39 1
    39   24   25 2
    40   24   37 1
    41   25   38 1
@<TRIPOS>MOLECULE
CHEMBL511410__9
   40    42     0     0     0
SMALL
NO_CHARGES

@<TRIPOS>ATOM
      1 C1         -0.0167    1.3770    0.0096 C.ar      1 <0>        -0.1006
      2 C2          1.1707    2.0858    0.0021 C.ar      1 <0>        -0.0931
      3 C3          2.3791    1.4145   -0.0130 C.ar      1 <0>        -0.0727
      4 C4          2.4032    0.0331   -0.0211 C.ar      1 <0>        -0.1332
      5 C5          1.2136   -0.6802   -0.0135 C.ar      1 <0>         0.1065
      6 C6          0.0021   -0.0041    0.0020 C.ar      1 <0>        -0.1343
      7 O1          1.2347   -2.0390   -0.0215 O.3       1 <0>        -0.4969
      8 C7          3.6712    2.1901   -0.0212 C.3       1 <0>         0.0835
      9 C8          3.9616    2.6677   -1.4207 C.2       1 <0>         0.5294
     10 O2          4.0608    3.8548   -1.6480 O.2       1 <0>        -0.5129
     11 N1          4.1111    1.7754   -2.4198 N.am      1 <0>        -0.8476
     12 N2          3.5538    3.3439    0.8740 N.2       1 <0>        -0.3759
     13 C9          4.3535    3.4641    1.8799 C.2       1 <0>         0.0805
     14 C10         5.5063    2.6742    2.4608 C.3       1 <0>         0.0918
     15 C11         5.9782    3.9937    3.0323 C.2       1 <0>         0.2911
     16 O3          7.0334    4.4717    3.3743 O.2       1 <0>        -0.3736
     17 C12         4.5561    4.4436    2.9796 C.2       1 <0>         0.3265
     18 O4          3.8716    5.2513    3.5711 O.2       1 <0>        -0.3722
     19 N3          5.1028    1.6997    3.4776 N.pl3     1 <0>        -0.6690
     20 C13         5.8938    0.5812    3.7221 C.ar      1 <0>         0.0738
     21 C14         7.0772    0.3730    3.0139 C.ar      1 <0>        -0.1532
     22 C15         7.8328   -0.7478    3.2865 C.ar      1 <0>         0.0410
     23 N4          7.4487   -1.6164    4.2032 N.ar      1 <0>        -0.5512
     24 C16         6.3357   -1.4552    4.8941 C.ar      1 <0>         0.0423
     25 C17         5.5269   -0.3579    4.6859 C.ar      1 <0>        -0.1473
     26 H1         -0.9594    1.9037    0.0259 H         1 <0>         0.1329
     27 H2          1.1540    3.1657    0.0076 H         1 <0>         0.1370
     28 H3          3.3475   -0.4909   -0.0336 H         1 <0>         0.1305
     29 H4         -0.9255   -0.5572    0.0082 H         1 <0>         0.1320
     30 H5          1.2494   -2.4373    0.8596 H         1 <0>         0.3921
     31 H6          4.4830    1.5473    0.3191 H         1 <0>         0.0957
     32 H7          4.0318    0.8259   -2.2380 H         1 <0>         0.4022
     33 H8          4.2980    2.0828   -3.3206 H         1 <0>         0.4087
     34 H9          6.1757    2.2554    1.7095 H         1 <0>         0.1296
     35 H10         4.2842    1.8342    3.9804 H         1 <0>         0.4050
     36 H11         7.3971    1.0795    2.2623 H         1 <0>         0.1344
     37 H12         8.7504   -0.9173    2.7427 H         1 <0>         0.1580
     38 H13         6.0572   -2.1898    5.6353 H         1 <0>         0.1583
     39 H14         4.6200   -0.2296    5.2581 H         1 <0>         0.1353
     40 H15         8.0003   -2.3959    4.3738 H         1 <0>         0.4157
@<TRIPOS>BOND
     1    1    6 ar
     2    1    2 ar
     3    1   26 1
     4    2    3 ar
     5    2   27 1
     6    3    4 ar
     7    3    8 1
     8    4    5 ar
     9    4   28 1
    10    5    6 ar
    11    5    7 1
    12    6   29 1
    13    7   30 1
    14    8    9 1
    15    8   31 1
    16    8   12 1
    17    9   10 2
    18    9   11 am
    19   11   32 1
    20   11   33 1
    21   12   13 2
    22   13   17 1
    23   13   14 1
    24   14   15 1
    25   14   19 1
    26   14   34 1
    27   15   16 2
    28   15   17 1
    29   17   18 2
    30   19   20 1
    31   19   35 1
    32   20   25 ar
    33   20   21 ar
    34   21   22 ar
    35   21   36 1
    36   22   23 ar
    37   22   37 1
    38   23   24 ar
    39   23   40 1
    40   24   25 ar
    41   24   38 1
    42   25   39 1
@<TRIPOS>MOLECULE
CHEMBL511410__10
   39    41     0     0     0
SMALL
NO_CHARGES

@<TRIPOS>ATOM
      1 C1         -0.0167    1.3770    0.0096 C.ar      1 <0>        -0.0990
      2 C2          1.1707    2.0858    0.0021 C.ar      1 <0>        -0.0941
      3 C3          2.3791    1.4145   -0.0130 C.ar      1 <0>        -0.0789
      4 C4          2.4032    0.0331   -0.0211 C.ar      1 <0>        -0.1325
      5 C5          1.2136   -0.6802   -0.0135 C.ar      1 <0>         0.1101
      6 C6          0.0021   -0.0041    0.0020 C.ar      1 <0>        -0.1308
      7 O1          1.2347   -2.0390   -0.0215 O.3       1 <0>        -0.4957
      8 C7          3.6712    2.1901   -0.0212 C.3       1 <0>         0.0781
      9 C8          3.9616    2.6677   -1.4207 C.2       1 <0>         0.5316
     10 O2          4.0608    3.8548   -1.6480 O.2       1 <0>        -0.5124
     11 N1          4.1111    1.7754   -2.4198 N.am      1 <0>        -0.8436
     12 N2          3.5538    3.3439    0.8740 N.2       1 <0>        -0.3410
     13 C9          4.3535    3.4641    1.8799 C.2       1 <0>         0.0807
     14 C10         5.5063    2.6742    2.4608 C.3       1 <0>         0.0867
     15 C11         5.9782    3.9937    3.0323 C.2       1 <0>         0.3290
     16 O3          7.0334    4.4717    3.3743 O.2       1 <0>        -0.3345
     17 C12         4.5561    4.4436    2.9796 C.2       1 <0>         0.3595
     18 O4          3.8716    5.2513    3.5711 O.2       1 <0>        -0.3356
     19 N3          5.1028    1.6997    3.4776 N.pl3     1 <0>        -0.7016
     20 C13         5.8938    0.5812    3.7221 C.ar      1 <0>         0.2440
     21 C14         7.0772    0.3730    3.0139 C.ar      1 <0>        -0.2465
     22 C15         7.8328   -0.7478    3.2865 C.ar      1 <0>         0.1430
     23 N4          7.4487   -1.6164    4.2032 N.ar      1 <0>        -0.5176
     24 C16         6.3359   -1.4550    4.8945 C.ar      1 <0>         0.1416
     25 C17         5.5269   -0.3579    4.6859 C.ar      1 <0>        -0.2355
     26 H1         -0.9594    1.9037    0.0259 H         1 <0>         0.1347
     27 H2          1.1540    3.1657    0.0076 H         1 <0>         0.1372
     28 H3          3.3475   -0.4909   -0.0336 H         1 <0>         0.1321
     29 H4         -0.9255   -0.5572    0.0082 H         1 <0>         0.1342
     30 H5          1.2494   -2.4373    0.8596 H         1 <0>         0.3943
     31 H6          4.4830    1.5473    0.3191 H         1 <0>         0.1005
     32 H7          4.0318    0.8259   -2.2380 H         1 <0>         0.4039
     33 H8          4.2980    2.0828   -3.3206 H         1 <0>         0.4117
     34 H9          6.1757    2.2554    1.7095 H         1 <0>         0.1476
     35 H10         7.3971    1.0795    2.2623 H         1 <0>         0.1329
     36 H11         8.7504   -0.9173    2.7427 H         1 <0>         0.1578
     37 H12         6.0575   -2.1894    5.6358 H         1 <0>         0.1584
     38 H13         4.6200   -0.2296    5.2581 H         1 <0>         0.1356
     39 H14         4.2842    1.8342    3.9804 H         1 <0>         0.4140
@<TRIPOS>BOND
     1    1    6 ar
     2    1    2 ar
     3    1   26 1
     4    2    3 ar
     5    2   27 1
     6    3    4 ar
     7    3    8 1
     8    4    5 ar
     9    4   28 1
    10    5    6 ar
    11    5    7 1
    12    6   29 1
    13    7   30 1
    14    8    9 1
    15    8   31 1
    16    8   12 1
    17    9   10 2
    18    9   11 am
    19   11   32 1
    20   11   33 1
    21   12   13 2
    22   13   17 1
    23   13   14 1
    24   14   15 1
    25   14   34 1
    26   14   19 1
    27   15   16 2
    28   15   17 1
    29   17   18 2
    30   19   20 1
    31   19   39 1
    32   20   25 ar
    33   20   21 ar
    34   21   22 ar
    35   21   35 1
    36   22   23 ar
    37   22   36 1
    38   23   24 ar
    39   24   25 ar
    40   24   37 1
    41   25   38 1
@<TRIPOS>MOLECULE
CHEMBL511410__11
   39    41     0     0     0
SMALL
NO_CHARGES

@<TRIPOS>ATOM
      1 C1         -0.0167    1.3770    0.0096 C.ar      1 <0>        -0.0989
      2 C2          1.1707    2.0858    0.0021 C.ar      1 <0>        -0.0931
      3 C3          2.3791    1.4145   -0.0130 C.ar      1 <0>        -0.0820
      4 C4          2.4032    0.0331   -0.0211 C.ar      1 <0>        -0.1352
      5 C5          1.2136   -0.6802   -0.0135 C.ar      1 <0>         0.1104
      6 C6          0.0021   -0.0041    0.0020 C.ar      1 <0>        -0.1304
      7 O1          1.2347   -2.0390   -0.0215 O.3       1 <0>        -0.4960
      8 C7          3.6712    2.1901   -0.0212 C.3       1 <0>         0.0729
      9 C8          3.9616    2.6677   -1.4207 C.2       1 <0>         0.5369
     10 O2          4.0608    3.8548   -1.6480 O.2       1 <0>        -0.5139
     11 N1          4.1111    1.7754   -2.4198 N.am      1 <0>        -0.8427
     12 N2          3.5538    3.3439    0.8740 N.2       1 <0>        -0.3368
     13 C9          4.3535    3.4641    1.8799 C.2       1 <0>         0.0801
     14 C10         4.5555    4.4579    3.0034 C.3       1 <0>         0.1518
     15 C11         5.1500    3.2987    3.7737 C.2       1 <0>         0.3207
     16 O3          5.2904    3.0005    4.9357 O.2       1 <0>        -0.3360
     17 C12         5.4815    2.6849    2.4543 C.2       1 <0>         0.3011
     18 O4          6.3051    1.8981    2.0377 O.2       1 <0>        -0.3515
     19 N3          5.5187    5.5165    2.6907 N.pl3     1 <0>        -0.7019
     20 C13         5.4419    6.7425    3.3448 C.ar      1 <0>         0.2455
     21 C14         4.4589    6.9808    4.3052 C.ar      1 <0>        -0.2432
     22 C15         4.4172    8.2090    4.9307 C.ar      1 <0>         0.1415
     23 N4          5.2915    9.1513    4.6306 N.ar      1 <0>        -0.5187
     24 C16         6.2363    8.9646    3.7279 C.ar      1 <0>         0.1405
     25 C17         6.3494    7.7629    3.0611 C.ar      1 <0>        -0.2347
     26 H1         -0.9594    1.9037    0.0259 H         1 <0>         0.1355
     27 H2          1.1540    3.1657    0.0076 H         1 <0>         0.1384
     28 H3          3.3475   -0.4909   -0.0336 H         1 <0>         0.1328
     29 H4         -0.9255   -0.5572    0.0082 H         1 <0>         0.1348
     30 H5          1.2494   -2.4373    0.8596 H         1 <0>         0.3948
     31 H6          4.4830    1.5473    0.3191 H         1 <0>         0.1018
     32 H7          4.0318    0.8259   -2.2380 H         1 <0>         0.4044
     33 H8          4.2980    2.0828   -3.3206 H         1 <0>         0.4119
     34 H9          3.6259    4.8376    3.4276 H         1 <0>         0.1589
     35 H10         3.7403    6.2143    4.5551 H         1 <0>         0.1353
     36 H11         3.6593    8.4025    5.6754 H         1 <0>         0.1580
     37 H12         6.9321    9.7618    3.5118 H         1 <0>         0.1581
     38 H13         7.1276    7.6152    2.3270 H         1 <0>         0.1355
     39 H14         6.2100    5.3629    2.0278 H         1 <0>         0.4132
@<TRIPOS>BOND
     1    1    6 ar
     2    1    2 ar
     3    1   26 1
     4    2    3 ar
     5    2   27 1
     6    3    4 ar
     7    3    8 1
     8    4    5 ar
     9    4   28 1
    10    5    6 ar
    11    5    7 1
    12    6   29 1
    13    7   30 1
    14    8    9 1
    15    8   31 1
    16    8   12 1
    17    9   10 2
    18    9   11 am
    19   11   32 1
    20   11   33 1
    21   12   13 2
    22   13   17 1
    23   13   14 1
    24   14   15 1
    25   14   34 1
    26   14   19 1
    27   15   16 2
    28   15   17 1
    29   17   18 2
    30   19   20 1
    31   19   39 1
    32   20   25 ar
    33   20   21 ar
    34   21   22 ar
    35   21   35 1
    36   22   23 ar
    37   22   36 1
    38   23   24 ar
    39   24   25 ar
    40   24   37 1
    41   25   38 1
@<TRIPOS>MOLECULE
CHEMBL272072
   55    59     0     0     0
SMALL
USER_CHARGES

@<TRIPOS>ATOM
      1 C1         -0.0187    1.5258    0.0104 C.3       1 <0>        -0.1686
      2 C2          0.0021   -0.0041    0.0020 C.3       1 <0>         0.1200
      3 C3         -1.4307   -0.5338    0.0188 C.3       1 <0>         0.1051
      4 N1         -2.0840   -0.3474    1.3083 N.am      1 <0>        -0.7285
      5 C4         -1.4232   -0.5167    2.4781 C.2       1 <0>         0.5922
      6 O1         -1.9985   -0.4858    3.5493 O.2       1 <0>        -0.5060
      7 C5          0.0332   -0.7414    2.3835 C.2       1 <0>         0.0130
      8 N2          0.7113   -0.4909    1.1900 N.pl3     1 <0>        -0.4607
      9 C6          2.0234   -0.7734    1.3752 C.ar      1 <0>         0.1158
     10 C7          3.1236   -0.6980    0.5247 C.ar      1 <0>        -0.0517
     11 C8          4.3605   -1.0755    1.0532 C.ar      1 <0>        -0.1075
     12 C9          4.4986   -1.5112    2.3759 C.ar      1 <0>        -0.1281
     13 C10         3.4310   -1.5912    3.2271 C.ar      1 <0>        -0.0489
     14 C11         2.1766   -1.2168    2.7189 C.ar      1 <0>        -0.0990
     15 C12         0.9039   -1.1816    3.3157 C.2       1 <0>        -0.0996
     16 C13         5.5577   -1.0134    0.1902 C.2       1 <0>         0.5665
     17 O2          5.4579   -0.6379   -0.9617 O.2       1 <0>        -0.4989
     18 N3          6.7608   -1.3729    0.6800 N.am      1 <0>        -0.6037
     19 C14         7.8857   -1.3145   -0.1308 C.2       1 <0>         0.2698
     20 N4          9.1335   -1.6246    0.1567 N.2       1 <0>        -0.4989
     21 C15        10.0577   -1.4854   -0.7982 C.2       1 <0>        -0.0006
     22 C16         9.6743   -1.0296   -2.0282 C.2       1 <0>        -0.2391
     23 S1          8.0174   -0.8075   -1.8360 S.3       1 <0>         0.2670
     24 C17        11.4664   -1.8173   -0.5295 C.2       1 <0>         0.5947
     25 O3         12.2999   -1.6866   -1.4058 O.2       1 <0>        -0.5345
     26 N5         11.8327   -2.2661    0.6874 N.am      1 <0>        -0.7095
     27 C18        13.2347   -2.5965    0.9548 C.3       1 <0>         0.1428
     28 C19        13.5152   -4.0361    0.5132 C.3       1 <0>        -0.1669
     29 C20        14.9597   -4.3983    0.8682 C.3       1 <0>         0.0632
     30 O4         15.1599   -4.2305    2.2732 O.3       1 <0>        -0.3812
     31 C21        14.9580   -2.8936    2.7357 C.3       1 <0>         0.0643
     32 C22        13.5134   -2.4710    2.4558 C.3       1 <0>        -0.1636
     33 H1          1.0039    1.9031    0.0027 H         1 <0>         0.0701
     34 H2         -0.5459    1.8868   -0.8726 H         1 <0>         0.0839
     35 H3         -0.5289    1.8773    0.9072 H         1 <0>         0.0659
     36 H4          0.5107   -0.3563   -0.8954 H         1 <0>         0.1187
     37 H5         -2.0072   -0.0139   -0.7463 H         1 <0>         0.1105
     38 H6         -1.4153   -1.5978   -0.2174 H         1 <0>         0.0779
     39 H7         -3.0202   -0.0943    1.3291 H         1 <0>         0.4115
     40 H8          3.0249   -0.3633   -0.4973 H         1 <0>         0.1472
     41 H9          5.4775   -1.7923    2.7354 H         1 <0>         0.1255
     42 H10         3.5476   -1.9286    4.2464 H         1 <0>         0.1456
     43 H11         0.6669   -1.4559    4.3331 H         1 <0>         0.1629
     44 H12         6.8404   -1.6725    1.5991 H         1 <0>         0.4277
     45 H13        10.2815   -0.8591   -2.9049 H         1 <0>         0.2092
     46 H14        11.1681   -2.3704    1.3862 H         1 <0>         0.4097
     47 H15        13.8817   -1.9126    0.4054 H         1 <0>         0.0913
     48 H16        12.8331   -4.7140    1.0264 H         1 <0>         0.0747
     49 H17        13.3726   -4.1210   -0.5641 H         1 <0>         0.0799
     50 H18        15.1519   -5.4359    0.5950 H         1 <0>         0.0985
     51 H19        15.6423   -3.7463    0.3233 H         1 <0>         0.0547
     52 H20        15.1490   -2.8471    3.8079 H         1 <0>         0.1004
     53 H21        15.6406   -2.2219    2.2153 H         1 <0>         0.0548
     54 H22        13.3696   -1.4365    2.7677 H         1 <0>         0.0815
     55 H23        12.8313   -3.1172    3.0082 H         1 <0>         0.0791
@<TRIPOS>BOND
     1    1    2 1
     2    1   33 1
     3    1   34 1
     4    1   35 1
     5    2    8 1
     6    2    3 1
     7    2   36 1
     8    3    4 1
     9    3   37 1
    10    3   38 1
    11    4    5 am
    12    4   39 1
    13    5    6 2
    14    5    7 1
    15    7   15 2
    16    7    8 1
    17    8    9 1
    18    9   14 ar
    19    9   10 ar
    20   10   11 ar
    21   10   40 1
    22   11   12 ar
    23   11   16 1
    24   12   13 ar
    25   12   41 1
    26   13   14 ar
    27   13   42 1
    28   14   15 1
    29   15   43 1
    30   16   17 2
    31   16   18 am
    32   18   19 1
    33   18   44 1
    34   19   23 1
    35   19   20 2
    36   20   21 1
    37   21   22 2
    38   21   24 1
    39   22   23 1
    40   22   45 1
    41   24   25 2
    42   24   26 am
    43   26   27 1
    44   26   46 1
    45   27   32 1
    46   27   28 1
    47   27   47 1
    48   28   29 1
    49   28   48 1
    50   28   49 1
    51   29   30 1
    52   29   50 1
    53   29   51 1
    54   30   31 1
    55   31   32 1
    56   31   52 1
    57   31   53 1
    58   32   54 1
    59   32   55 1
@<TRIPOS>MOLECULE
CHEMBL272072__1
   55    59     0     0     0
SMALL
USER_CHARGES

@<TRIPOS>ATOM
      1 C1         -0.0187    1.5258    0.0104 C.3       1 <0>        -0.1686
      2 C2          0.0021   -0.0041    0.0020 C.3       1 <0>         0.1200
      3 C3          0.7222   -0.4976   -1.2516 C.3       1 <0>         0.1052
      4 N1          2.1617   -0.2761   -1.1972 N.am      1 <0>        -0.7285
      5 C4          2.8705   -0.4441   -0.0556 C.2       1 <0>         0.5922
      6 O1          4.0850   -0.3819   -0.0404 O.2       1 <0>        -0.5059
      7 C5          2.0896   -0.7064    1.1700 C.2       1 <0>         0.0130
      8 N2          0.7113   -0.4909    1.1900 N.pl3     1 <0>        -0.4606
      9 C6          0.2465   -0.8036    2.4237 C.ar      1 <0>         0.1157
     10 C7         -1.0312   -0.7684    2.9763 C.ar      1 <0>        -0.0517
     11 C8         -1.1570   -1.1690    4.3088 C.ar      1 <0>        -0.1076
     12 C9         -0.0551   -1.5886    5.0628 C.ar      1 <0>        -0.1281
     13 C10         1.2075   -1.6297    4.5387 C.ar      1 <0>        -0.0490
     14 C11         1.3596   -1.2310    3.2008 C.ar      1 <0>        -0.0989
     15 C12         2.4958   -1.1540    2.3764 C.2       1 <0>        -0.0997
     16 C13        -2.4920   -1.1487    4.9405 C.2       1 <0>         0.5665
     17 O2         -3.4612   -0.7870    4.3019 O.2       1 <0>        -0.4989
     18 N3         -2.6357   -1.5312    6.2249 N.am      1 <0>        -0.6036
     19 C14        -3.8900   -1.5121    6.8184 C.2       1 <0>         0.2697
     20 N4         -4.2318   -1.8389    8.0482 N.2       1 <0>        -0.4989
     21 C15        -5.5178   -1.7386    8.3968 C.2       1 <0>        -0.0006
     22 C16        -6.4225   -1.3034    7.4694 C.2       1 <0>        -0.2391
     23 S1         -5.4583   -1.0312    6.1174 S.3       1 <0>         0.2670
     24 C17        -5.9533   -2.0916    9.7579 C.2       1 <0>         0.5946
     25 O3         -7.1266   -1.9970   10.0648 O.2       1 <0>        -0.5345
     26 N5         -5.0521   -2.5195   10.6641 N.am      1 <0>        -0.7095
     27 C18        -5.4855   -2.8708   12.0187 C.3       1 <0>         0.1428
     28 C19        -5.5252   -1.6097   12.8872 C.3       1 <0>        -0.1669
     29 C20        -5.9025   -1.9975   14.3193 C.3       1 <0>         0.0632
     30 O4         -4.9606   -2.9497   14.8174 O.3       1 <0>        -0.3812
     31 C21        -4.9137   -4.1685   14.0726 C.3       1 <0>         0.0643
     32 C22        -4.4967   -3.8679   12.6306 C.3       1 <0>        -0.1636
     33 H1          1.0039    1.9031    0.0027 H         1 <0>         0.0659
     34 H2         -0.5459    1.8868   -0.8726 H         1 <0>         0.0839
     35 H3         -0.5289    1.8773    0.9072 H         1 <0>         0.0701
     36 H4         -1.0203   -0.3820    0.0080 H         1 <0>         0.1187
     37 H5          0.5345   -1.5650   -1.3680 H         1 <0>         0.0778
     38 H6          0.3181    0.0252   -2.1184 H         1 <0>         0.1105
     39 H7          2.6259    0.0003   -2.0028 H         1 <0>         0.4115
     40 H8         -1.8863   -0.4456    2.4010 H         1 <0>         0.1472
     41 H9         -0.2063   -1.8886    6.0893 H         1 <0>         0.1255
     42 H10         2.0517   -1.9550    5.1287 H         1 <0>         0.1456
     43 H11         3.5076   -1.4074    2.6569 H         1 <0>         0.1629
     44 H12        -1.8623   -1.8198    6.7344 H         1 <0>         0.4277
     45 H13        -7.4880   -1.1647    7.5783 H         1 <0>         0.2092
     46 H14        -4.1165   -2.5949   10.4193 H         1 <0>         0.4097
     47 H15        -6.4781   -3.3193   11.9791 H         1 <0>         0.0913
     48 H16        -4.5441   -1.1347   12.8849 H         1 <0>         0.0747
     49 H17        -6.2672   -0.9170   12.4899 H         1 <0>         0.0799
     50 H18        -5.8906   -1.1096   14.9514 H         1 <0>         0.0985
     51 H19        -6.9006   -2.4355   14.3263 H         1 <0>         0.0547
     52 H20        -4.1895   -4.8445   14.5271 H         1 <0>         0.1004
     53 H21        -5.8988   -4.6349   14.0764 H         1 <0>         0.0548
     54 H22        -4.5031   -4.7903   12.0498 H         1 <0>         0.0815
     55 H23        -3.4948   -3.4386   12.6231 H         1 <0>         0.0791
@<TRIPOS>BOND
     1    1    2 1
     2    1   33 1
     3    1   34 1
     4    1   35 1
     5    2    8 1
     6    2    3 1
     7    2   36 1
     8    3    4 1
     9    3   37 1
    10    3   38 1
    11    4    5 am
    12    4   39 1
    13    5    6 2
    14    5    7 1
    15    7   15 2
    16    7    8 1
    17    8    9 1
    18    9   14 ar
    19    9   10 ar
    20   10   11 ar
    21   10   40 1
    22   11   12 ar
    23   11   16 1
    24   12   13 ar
    25   12   41 1
    26   13   14 ar
    27   13   42 1
    28   14   15 1
    29   15   43 1
    30   16   17 2
    31   16   18 am
    32   18   19 1
    33   18   44 1
    34   19   23 1
    35   19   20 2
    36   20   21 1
    37   21   22 2
    38   21   24 1
    39   22   23 1
    40   22   45 1
    41   24   25 2
    42   24   26 am
    43   26   27 1
    44   26   46 1
    45   27   32 1
    46   27   28 1
    47   27   47 1
    48   28   29 1
    49   28   48 1
    50   28   49 1
    51   29   30 1
    52   29   50 1
    53   29   51 1
    54   30   31 1
    55   31   32 1
    56   31   52 1
    57   31   53 1
    58   32   54 1
    59   32   55 1
@<TRIPOS>MOLECULE
CHEMBL442419
   45    48     0     0     0
SMALL
USER_CHARGES

@<TRIPOS>ATOM
      1 C1         -0.0172    1.5261   -0.0008 C.3       1 <0>        -0.1451
      2 C2          0.0019   -0.0038    0.0036 C.3       1 <0>        -0.0435
      3 C3         -1.4320   -0.5337    0.0363 C.3       1 <0>         0.1147
      4 N1         -2.0604   -0.3624    1.3398 N.am      1 <0>        -0.7150
      5 C4         -1.3866   -0.5356    2.4997 C.2       1 <0>         0.5937
      6 O1         -1.9562   -0.5180    3.5744 O.2       1 <0>        -0.5310
      7 C5          0.0688   -0.7472    2.4031 C.2       1 <0>         0.0027
      8 C6          0.7321   -0.4957    1.2263 C.2       1 <0>        -0.0921
      9 C7          2.0809   -0.7794    1.4358 C.ar      1 <0>        -0.1139
     10 C8          3.2020   -0.7037    0.5998 C.ar      1 <0>         0.0224
     11 C9          4.4271   -1.0753    1.1559 C.ar      1 <0>        -0.1731
     12 C10         4.5325   -1.5030    2.4849 C.ar      1 <0>        -0.0630
     13 C11         3.4459   -1.5818    3.3139 C.ar      1 <0>        -0.1270
     14 C12         2.2060   -1.2161    2.7860 C.ar      1 <0>         0.1313
     15 N2          0.9638   -1.1850    3.3471 N.pl3     1 <0>        -0.5360
     16 H1          0.7486   -1.4313    4.2603 H         1 <0>         0.4297
     17 C13         5.6433   -1.0155    0.3212 C.2       1 <0>         0.5658
     18 O2          5.5696   -0.6460   -0.8347 O.2       1 <0>        -0.5160
     19 N3          6.8352   -1.3704    0.8407 N.am      1 <0>        -0.6718
     20 C14         7.9666   -1.4061    0.0279 C.ar      1 <0>         0.1753
     21 C15         8.9411   -2.3772    0.2368 C.ar      1 <0>        -0.1537
     22 C16        10.0597   -2.4154   -0.5645 C.ar      1 <0>        -0.0369
     23 C17        10.2161   -1.4775   -1.5888 C.ar      1 <0>        -0.1582
     24 C18         9.2354   -0.5035   -1.7959 C.ar      1 <0>        -0.0651
     25 C19         8.1167   -0.4740   -0.9944 C.ar      1 <0>        -0.1300
     26 C20        11.4143   -1.5153   -2.4496 C.2       1 <0>         0.5651
     27 O3         12.2668   -2.3630   -2.2680 O.2       1 <0>        -0.5417
     28 N4         11.5636   -0.6101   -3.4369 N.am      1 <0>        -0.8516
     29 H2          1.0058    1.9022   -0.0137 H         1 <0>         0.0635
     30 H3         -0.5457    1.8803   -0.8859 H         1 <0>         0.0669
     31 H4         -0.5253    1.8857    0.8939 H         1 <0>         0.0559
     32 H5          0.5061   -0.3652   -0.8927 H         1 <0>         0.1066
     33 H6         -2.0212   -0.0031   -0.7116 H         1 <0>         0.0959
     34 H7         -1.4216   -1.5947   -0.2134 H         1 <0>         0.0715
     35 H8         -2.9975   -0.1144    1.3771 H         1 <0>         0.4114
     36 H9          3.1223   -0.3740   -0.4255 H         1 <0>         0.1498
     37 H10         5.5032   -1.7802    2.8687 H         1 <0>         0.1274
     38 H11         3.5440   -1.9141    4.3368 H         1 <0>         0.1406
     39 H12         6.9055   -1.6010    1.7802 H         1 <0>         0.4130
     40 H13         8.8199   -3.1014    1.0287 H         1 <0>         0.1348
     41 H14        10.8159   -3.1691   -0.4017 H         1 <0>         0.1416
     42 H15         9.3535    0.2229   -2.5864 H         1 <0>         0.1303
     43 H16         7.3565    0.2758   -1.1566 H         1 <0>         0.1475
     44 H17        10.8835    0.0662   -3.5818 H         1 <0>         0.4011
     45 H18        12.3512   -0.6349   -4.0026 H         1 <0>         0.4059
@<TRIPOS>BOND
     1    1    2 1
     2    1   29 1
     3    1   30 1
     4    1   31 1
     5    2    8 1
     6    2    3 1
     7    2   32 1
     8    3    4 1
     9    3   33 1
    10    3   34 1
    11    4    5 am
    12    4   35 1
    13    5    6 2
    14    5    7 1
    15    7   15 1
    16    7    8 2
    17    8    9 1
    18    9   14 ar
    19    9   10 ar
    20   10   11 ar
    21   10   36 1
    22   11   12 ar
    23   11   17 1
    24   12   13 ar
    25   12   37 1
    26   13   14 ar
    27   13   38 1
    28   14   15 1
    29   15   16 1
    30   17   18 2
    31   17   19 am
    32   19   20 1
    33   19   39 1
    34   20   25 ar
    35   20   21 ar
    36   21   22 ar
    37   21   40 1
    38   22   23 ar
    39   22   41 1
    40   23   24 ar
    41   23   26 1
    42   24   25 ar
    43   24   42 1
    44   25   43 1
    45   26   27 2
    46   26   28 am
    47   28   44 1
    48   28   45 1
@<TRIPOS>MOLECULE
CHEMBL442419__1
   45    48     0     0     0
SMALL
USER_CHARGES

@<TRIPOS>ATOM
      1 C1         -0.0053    1.5248    0.0153 C.3       1 <0>        -0.1453
      2 C2          0.0032   -0.0051    0.0022 C.3       1 <0>        -0.0433
      3 C3          0.7252   -0.5025   -1.2506 C.3       1 <0>         0.1148
      4 N1          2.1687   -0.3198   -1.1721 N.am      1 <0>        -0.7150
      5 C4          2.8642   -0.5111   -0.0279 C.2       1 <0>         0.5937
      6 O1          4.0802   -0.4825   -0.0110 O.2       1 <0>        -0.5310
      7 C5          2.0826   -0.7552    1.1975 C.2       1 <0>         0.0028
      8 C6          0.7296   -0.5160    1.2193 C.2       1 <0>        -0.0921
      9 C7          0.2681   -0.8310    2.4967 C.ar      1 <0>        -0.1138
     10 C8         -1.0042   -0.7797    3.0795 C.ar      1 <0>         0.0224
     11 C9         -1.1015   -1.1806    4.4129 C.ar      1 <0>        -0.1731
     12 C10         0.0174   -1.6133    5.1347 C.ar      1 <0>        -0.0630
     13 C11         1.2672   -1.6686    4.5787 C.ar      1 <0>        -0.1270
     14 C12         1.3964   -1.2730    3.2458 C.ar      1 <0>         0.1313
     15 N2          2.4849   -1.2154    2.4265 N.pl3     1 <0>        -0.5361
     16 H1          3.3914   -1.4591    2.6710 H         1 <0>         0.4297
     17 C13        -2.4182   -1.1470    5.0796 C.2       1 <0>         0.5657
     18 O2         -3.4001   -0.7736    4.4676 O.2       1 <0>        -0.5160
     19 N3         -2.5319   -1.5304    6.3667 N.am      1 <0>        -0.6718
     20 C14        -3.7542   -1.4085    7.0247 C.ar      1 <0>         0.1753
     21 C15        -3.7853   -1.0759    8.3756 C.ar      1 <0>        -0.1537
     22 C16        -4.9911   -0.9542    9.0284 C.ar      1 <0>        -0.0369
     23 C17        -6.1849   -1.1652    8.3329 C.ar      1 <0>        -0.1582
     24 C18        -6.1501   -1.4991    6.9763 C.ar      1 <0>        -0.0651
     25 C19        -4.9412   -1.6139    6.3281 C.ar      1 <0>        -0.1300
     26 C20        -7.4795   -1.0361    9.0298 C.2       1 <0>         0.5650
     27 O3         -7.5082   -0.7459   10.2102 O.2       1 <0>        -0.5417
     28 N4         -8.6298   -1.2398    8.3578 N.am      1 <0>        -0.8515
     29 H2          1.0202    1.8940    0.0069 H         1 <0>         0.0559
     30 H3         -0.5311    1.8928   -0.8658 H         1 <0>         0.0669
     31 H4         -0.5111    1.8777    0.9140 H         1 <0>         0.0636
     32 H5         -1.0218   -0.3759    0.0064 H         1 <0>         0.1066
     33 H6          0.5106   -1.5629   -1.3836 H         1 <0>         0.0715
     34 H7          0.3472    0.0429   -2.1153 H         1 <0>         0.0958
     35 H8          2.6491   -0.0511   -1.9708 H         1 <0>         0.4114
     36 H9         -1.8683   -0.4459    2.5242 H         1 <0>         0.1498
     37 H10        -0.1097   -1.9138    6.1642 H         1 <0>         0.1274
     38 H11         2.1204   -2.0047    5.1492 H         1 <0>         0.1406
     39 H12        -1.7628   -1.8911    6.8350 H         1 <0>         0.4130
     40 H13        -2.8625   -0.9134    8.9125 H         1 <0>         0.1348
     41 H14        -5.0146   -0.6964   10.0769 H         1 <0>         0.1416
     42 H15        -7.0709   -1.6630    6.4362 H         1 <0>         0.1303
     43 H16        -4.9137   -1.8679    5.2787 H         1 <0>         0.1475
     44 H17        -8.6069   -1.4713    7.4161 H         1 <0>         0.4011
     45 H18        -9.4807   -1.1549    8.8158 H         1 <0>         0.4060
@<TRIPOS>BOND
     1    1    2 1
     2    1   29 1
     3    1   30 1
     4    1   31 1
     5    2    8 1
     6    2    3 1
     7    2   32 1
     8    3    4 1
     9    3   33 1
    10    3   34 1
    11    4    5 am
    12    4   35 1
    13    5    6 2
    14    5    7 1
    15    7   15 1
    16    7    8 2
    17    8    9 1
    18    9   14 ar
    19    9   10 ar
    20   10   11 ar
    21   10   36 1
    22   11   12 ar
    23   11   17 1
    24   12   13 ar
    25   12   37 1
    26   13   14 ar
    27   13   38 1
    28   14   15 1
    29   15   16 1
    30   17   18 2
    31   17   19 am
    32   19   20 1
    33   19   39 1
    34   20   25 ar
    35   20   21 ar
    36   21   22 ar
    37   21   40 1
    38   22   23 ar
    39   22   41 1
    40   23   24 ar
    41   23   26 1
    42   24   25 ar
    43   24   42 1
    44   25   43 1
    45   26   27 2
    46   26   28 am
    47   28   44 1
    48   28   45 1
@<TRIPOS>MOLECULE
CHEMBL404224
   40    43     0     0     0
SMALL
USER_CHARGES

@<TRIPOS>ATOM
      1 C1         -0.0169    1.3974    0.0097 C.ar      1 <0>        -0.0495
      2 C2          1.1510    2.0966    0.0023 C.ar      1 <0>        -0.1197
      3 C3          2.3808    1.4233   -0.0131 C.ar      1 <0>        -0.0856
      4 C4          2.4208    0.0330   -0.0207 C.ar      1 <0>        -0.0678
      5 C5          1.2357   -0.6929   -0.0129 C.ar      1 <0>         0.1243
      6 C6          0.0021   -0.0041    0.0020 C.ar      1 <0>        -0.1044
      7 C7         -1.0228   -0.9850    0.0051 C.2       1 <0>        -0.0711
      8 C8         -0.4299   -2.1926   -0.0068 C.2       1 <0>        -0.0149
      9 N1          0.9522   -2.0298   -0.0161 N.pl3     1 <0>        -0.4825
     10 C9          1.8591   -3.1812   -0.0274 C.3       1 <0>         0.1008
     11 C10         1.1936   -4.3506    0.6968 C.3       1 <0>         0.1167
     12 H1          1.7711   -5.2557    0.5085 H         1 <0>         0.1415
     13 N2         -0.1807   -4.5712    0.2649 N.am      1 <0>        -0.7528
     14 C11        -1.0227   -3.5460   -0.0102 C.2       1 <0>         0.5940
     15 O1         -2.2019   -3.7293   -0.2449 O.2       1 <0>        -0.4725
     16 C12         1.1972   -4.0670    2.2002 C.3       1 <0>        -0.0326
     17 N3          0.4552   -5.1244    2.8998 N.4       1 <0>        -0.6335
     18 C13         3.6405    2.1946   -0.0220 C.2       1 <0>         0.5553
     19 O2          4.7086    1.6140   -0.0354 O.2       1 <0>        -0.4640
     20 N4          3.6059    3.5419   -0.0152 N.am      1 <0>        -0.6159
     21 C14         4.7903    4.2670   -0.0235 C.2       1 <0>         0.2603
     22 N5          6.0257    3.8148   -0.0437 N.2       1 <0>        -0.5199
     23 C15         7.0548    4.6417   -0.0491 C.2       1 <0>         0.0587
     24 C16         6.7789    5.9690   -0.0328 C.2       1 <0>        -0.2347
     25 S1          4.9938    5.9377   -0.0175 S.3       1 <0>         0.1216
     26 H2         -0.9600    1.9236    0.0261 H         1 <0>         0.1423
     27 H3          1.1302    3.1764    0.0080 H         1 <0>         0.1343
     28 H4          3.3705   -0.4812   -0.0329 H         1 <0>         0.1411
     29 H5         -2.0862   -0.7965    0.0152 H         1 <0>         0.1657
     30 H6          2.0741   -3.4655   -1.0575 H         1 <0>         0.1108
     31 H7          2.7873   -2.9190    0.4803 H         1 <0>         0.1226
     32 H8         -0.5027   -5.4812    0.1698 H         1 <0>         0.4148
     33 H9          2.2248   -4.0433    2.5631 H         1 <0>         0.1554
     34 H10         0.7227   -3.1041    2.3895 H         1 <0>         0.1380
     35 H11        -0.4960   -5.1464    2.5640 H         1 <0>         0.4347
     36 H12         0.8944   -6.0157    2.7246 H         1 <0>         0.4367
     37 H13         2.7537    4.0051   -0.0045 H         1 <0>         0.4267
     38 H14         8.0712    4.2770   -0.0653 H         1 <0>         0.1787
     39 H15         7.4531    6.8127   -0.0329 H         1 <0>         0.2027
     40 H16         0.4576   -4.9373    3.8913 H         1 <0>         0.4440
@<TRIPOS>BOND
     1    1    6 ar
     2    1    2 ar
     3    1   26 1
     4    2    3 ar
     5    2   27 1
     6    3    4 ar
     7    3   18 1
     8    4    5 ar
     9    4   28 1
    10    5    9 1
    11    5    6 ar
    12    6    7 1
    13    7    8 2
    14    7   29 1
    15    8   14 1
    16    8    9 1
    17    9   10 1
    18   10   11 1
    19   10   30 1
    20   10   31 1
    21   11   12 1
    22   11   13 1
    23   11   16 1
    24   13   14 am
    25   13   32 1
    26   14   15 2
    27   16   17 1
    28   16   33 1
    29   16   34 1
    30   17   35 1
    31   17   36 1
    32   17   40 1
    33   18   19 2
    34   18   20 am
    35   20   21 1
    36   20   37 1
    37   21   25 1
    38   21   22 2
    39   22   23 1
    40   23   24 2
    41   23   38 1
    42   24   25 1
    43   24   39 1
@<TRIPOS>MOLECULE
CHEMBL1092754
   55    59     0     0     0
SMALL
USER_CHARGES

@<TRIPOS>ATOM
      1 C1         -0.4192    1.4159    0.0566 C.3       1 <0>         0.0727
      2 N1         -0.1016   -0.0136    0.0117 N.pl3     1 <0>        -0.4581
      3 C2         -0.1908   -0.7897   -1.0975 C.2       1 <0>         0.1293
      4 C3          0.1811   -2.0806   -0.7851 C.2       1 <0>        -0.1757
      5 C4          0.5246   -2.0730    0.6464 C.ar      1 <0>        -0.1106
      6 C5          0.3345   -0.7539    1.0889 C.ar      1 <0>         0.2836
      7 N2          0.5756   -0.4422    2.3559 N.ar      1 <0>        -0.4889
      8 C6          0.9961   -1.3357    3.2271 C.ar      1 <0>         0.1395
      9 C7          1.2113   -2.6536    2.8696 C.ar      1 <0>        -0.1753
     10 C8          0.9674   -3.0495    1.5523 C.ar      1 <0>         0.0341
     11 C9          1.1853   -4.4499    1.1217 C.ar      1 <0>        -0.0286
     12 C10         2.0507   -4.7273    0.0624 C.ar      1 <0>        -0.1099
     13 C11         2.2540   -6.0285   -0.3381 C.ar      1 <0>        -0.0524
     14 C12         1.5938   -7.0716    0.3161 C.ar      1 <0>        -0.1250
     15 C13         0.7278   -6.7932    1.3763 C.ar      1 <0>        -0.0829
     16 C14         0.5295   -5.4919    1.7792 C.ar      1 <0>        -0.1062
     17 C15         1.8112   -8.4684   -0.1135 C.2       1 <0>         0.5568
     18 O1          2.5646   -8.7103   -1.0364 O.2       1 <0>        -0.5309
     19 N3          1.1742   -9.4745    0.5179 N.am      1 <0>        -0.7213
     20 C16         1.3896  -10.8595    0.0919 C.3       1 <0>         0.1186
     21 C17         0.5549  -11.7976    0.9660 C.3       1 <0>         0.0626
     22 O2         -0.8340  -11.5455    0.7439 O.3       1 <0>        -0.5715
     23 C18         0.2253   -3.2260   -1.6930 C.2       1 <0>         0.0485
     24 C19         0.1951   -3.0287   -3.0404 C.2       1 <0>        -0.0763
     25 C20         0.2260   -4.0478   -4.0299 C.2       1 <0>         0.4132
     26 O3          0.2838   -5.2531   -3.8509 O.2       1 <0>        -0.4176
     27 C21         0.1722   -3.3362   -5.3178 C.ar      1 <0>        -0.2958
     28 C22         0.1703   -3.7556   -6.6523 C.ar      1 <0>         0.2182
     29 C23         0.1107   -2.8116   -7.6645 C.ar      1 <0>        -0.1883
     30 C24         0.0541   -1.4640   -7.3536 C.ar      1 <0>        -0.0320
     31 C25         0.0556   -1.0416   -6.0394 C.ar      1 <0>        -0.1507
     32 C26         0.1143   -1.9689   -5.0062 C.ar      1 <0>         0.1544
     33 O4          0.1245   -1.8283   -3.6631 O.3       1 <0>        -0.2160
     34 O5          0.2268   -5.0776   -6.9532 O.3       1 <0>        -0.4871
     35 H1          0.4758    1.9943   -0.1727 H         1 <0>         0.0780
     36 H2         -1.1939    1.6391   -0.6770 H         1 <0>         0.0891
     37 H3         -0.7758    1.6778    1.0527 H         1 <0>         0.0928
     38 H4         -0.5048   -0.4497   -2.0733 H         1 <0>         0.1919
     39 H5          1.1779   -1.0309    4.2472 H         1 <0>         0.1673
     40 H6          1.5571   -3.3692    3.6007 H         1 <0>         0.1443
     41 H7          2.5606   -3.9208   -0.4435 H         1 <0>         0.1325
     42 H8          2.9234   -6.2430   -1.1581 H         1 <0>         0.1416
     43 H9          0.2171   -7.5991    1.8825 H         1 <0>         0.1302
     44 H10        -0.1368   -5.2768    2.6015 H         1 <0>         0.1342
     45 H11         0.5730   -9.2814    1.2543 H         1 <0>         0.4025
     46 H12         1.0890  -10.9702   -0.9499 H         1 <0>         0.0784
     47 H13         2.4453  -11.1110    0.1942 H         1 <0>         0.0851
     48 H14         0.7821  -12.8321    0.7087 H         1 <0>         0.0662
     49 H15         0.7925  -11.6237    2.0155 H         1 <0>         0.0542
     50 H16        -1.4240  -12.1058    1.2666 H         1 <0>         0.3839
     51 H17         0.2820   -4.2285   -1.2952 H         1 <0>         0.1649
     52 H18         0.1088   -3.1275   -8.6973 H         1 <0>         0.1431
     53 H19         0.0086   -0.7344   -8.1485 H         1 <0>         0.1466
     54 H20         0.0111    0.0135   -5.8133 H         1 <0>         0.1410
     55 H21        -0.6392   -5.5017   -7.0263 H         1 <0>         0.4016
@<TRIPOS>BOND
     1    1    2 1
     2    1   35 1
     3    1   36 1
     4    1   37 1
     5    2    6 1
     6    2    3 1
     7    3    4 2
     8    3   38 1
     9    4    5 1
    10    4   23 1
    11    5   10 ar
    12    5    6 ar
    13    6    7 ar
    14    7    8 ar
    15    8    9 ar
    16    8   39 1
    17    9   10 ar
    18    9   40 1
    19   10   11 1
    20   11   16 ar
    21   11   12 ar
    22   12   13 ar
    23   12   41 1
    24   13   14 ar
    25   13   42 1
    26   14   15 ar
    27   14   17 1
    28   15   16 ar
    29   15   43 1
    30   16   44 1
    31   17   18 2
    32   17   19 am
    33   19   20 1
    34   19   45 1
    35   20   21 1
    36   20   46 1
    37   20   47 1
    38   21   22 1
    39   21   48 1
    40   21   49 1
    41   22   50 1
    42   23   24 2
    43   23   51 1
    44   24   33 1
    45   24   25 1
    46   25   26 2
    47   25   27 1
    48   27   32 ar
    49   27   28 ar
    50   28   29 ar
    51   28   34 1
    52   29   30 ar
    53   29   52 1
    54   30   31 ar
    55   30   53 1
    56   31   32 ar
    57   31   54 1
    58   32   33 1
    59   34   55 1
@<TRIPOS>MOLECULE
CHEMBL271863
   56    59     0     0     0
SMALL
USER_CHARGES

@<TRIPOS>ATOM
      1 C1         -0.0187    1.5258    0.0104 C.3       1 <0>        -0.1686
      2 C2          0.0021   -0.0041    0.0020 C.3       1 <0>         0.1200
      3 C3         -1.4307   -0.5338    0.0188 C.3       1 <0>         0.1051
      4 N1         -2.0840   -0.3474    1.3083 N.am      1 <0>        -0.7285
      5 C4         -1.4232   -0.5167    2.4781 C.2       1 <0>         0.5922
      6 O1         -1.9985   -0.4858    3.5493 O.2       1 <0>        -0.5061
      7 C5          0.0332   -0.7414    2.3835 C.2       1 <0>         0.0128
      8 N2          0.7113   -0.4909    1.1900 N.pl3     1 <0>        -0.4607
      9 C6          2.0234   -0.7734    1.3752 C.ar      1 <0>         0.1159
     10 C7          3.1236   -0.6980    0.5247 C.ar      1 <0>        -0.0519
     11 C8          4.3605   -1.0755    1.0532 C.ar      1 <0>        -0.1072
     12 C9          4.4986   -1.5112    2.3759 C.ar      1 <0>        -0.1281
     13 C10         3.4310   -1.5912    3.2271 C.ar      1 <0>        -0.0490
     14 C11         2.1766   -1.2168    2.7189 C.ar      1 <0>        -0.0991
     15 C12         0.9039   -1.1816    3.3157 C.2       1 <0>        -0.0996
     16 C13         5.5577   -1.0134    0.1902 C.2       1 <0>         0.5663
     17 O2          5.4579   -0.6379   -0.9617 O.2       1 <0>        -0.4988
     18 N3          6.7608   -1.3729    0.6800 N.am      1 <0>        -0.6036
     19 C14         7.8857   -1.3145   -0.1308 C.2       1 <0>         0.2689
     20 N4          9.1335   -1.6246    0.1567 N.2       1 <0>        -0.4990
     21 C15        10.0577   -1.4854   -0.7982 C.2       1 <0>         0.0006
     22 C16         9.6743   -1.0296   -2.0282 C.2       1 <0>        -0.2393
     23 S1          8.0174   -0.8075   -1.8360 S.3       1 <0>         0.2654
     24 C17        11.4664   -1.8173   -0.5295 C.2       1 <0>         0.5909
     25 O3         12.2999   -1.6866   -1.4058 O.2       1 <0>        -0.5360
     26 N5         11.8327   -2.2661    0.6874 N.am      1 <0>        -0.7111
     27 C18        13.2347   -2.5965    0.9548 C.3       1 <0>         0.1273
     28 C19        13.3785   -3.0783    2.3998 C.3       1 <0>        -0.0814
     29 C20        12.5123   -4.3216    2.6114 C.3       1 <0>        -0.1441
     30 C21        14.8427   -3.4233    2.6791 C.3       1 <0>        -0.1405
     31 C22        12.9243   -1.9719    3.3540 C.3       1 <0>        -0.1441
     32 H1          1.0039    1.9031    0.0027 H         1 <0>         0.0701
     33 H2         -0.5459    1.8868   -0.8726 H         1 <0>         0.0839
     34 H3         -0.5289    1.8773    0.9072 H         1 <0>         0.0658
     35 H4          0.5107   -0.3563   -0.8954 H         1 <0>         0.1187
     36 H5         -2.0072   -0.0139   -0.7463 H         1 <0>         0.1105
     37 H6         -1.4153   -1.5978   -0.2174 H         1 <0>         0.0778
     38 H7         -3.0202   -0.0943    1.3291 H         1 <0>         0.4115
     39 H8          3.0249   -0.3633   -0.4973 H         1 <0>         0.1472
     40 H9          5.4775   -1.7923    2.7354 H         1 <0>         0.1255
     41 H10         3.5476   -1.9286    4.2464 H         1 <0>         0.1455
     42 H11         0.6669   -1.4559    4.3331 H         1 <0>         0.1628
     43 H12         6.8404   -1.6725    1.5991 H         1 <0>         0.4274
     44 H13        10.2815   -0.8591   -2.9049 H         1 <0>         0.2091
     45 H14        11.1681   -2.3704    1.3862 H         1 <0>         0.4089
     46 H15        13.5583   -3.3847    0.2751 H         1 <0>         0.0700
     47 H16        13.8518   -1.7107    0.8041 H         1 <0>         0.0700
     48 H17        12.8359   -5.1099    1.9317 H         1 <0>         0.0581
     49 H18        12.6147   -4.6649    3.6409 H         1 <0>         0.0601
     50 H19        11.4691   -4.0758    2.4124 H         1 <0>         0.0551
     51 H20        15.4598   -2.5375    2.5284 H         1 <0>         0.0590
     52 H21        14.9451   -3.7666    3.7086 H         1 <0>         0.0619
     53 H22        15.1663   -4.2115    1.9994 H         1 <0>         0.0590
     54 H23        11.8811   -1.7261    3.1550 H         1 <0>         0.0551
     55 H24        13.0267   -2.3151    4.3834 H         1 <0>         0.0601
     56 H25        13.5414   -1.0861    3.2032 H         1 <0>         0.0581
@<TRIPOS>BOND
     1    1    2 1
     2    1   32 1
     3    1   33 1
     4    1   34 1
     5    2    8 1
     6    2    3 1
     7    2   35 1
     8    3    4 1
     9    3   36 1
    10    3   37 1
    11    4    5 am
    12    4   38 1
    13    5    6 2
    14    5    7 1
    15    7   15 2
    16    7    8 1
    17    8    9 1
    18    9   14 ar
    19    9   10 ar
    20   10   11 ar
    21   10   39 1
    22   11   12 ar
    23   11   16 1
    24   12   13 ar
    25   12   40 1
    26   13   14 ar
    27   13   41 1
    28   14   15 1
    29   15   42 1
    30   16   17 2
    31   16   18 am
    32   18   19 1
    33   18   43 1
    34   19   23 1
    35   19   20 2
    36   20   21 1
    37   21   22 2
    38   21   24 1
    39   22   23 1
    40   22   44 1
    41   24   25 2
    42   24   26 am
    43   26   27 1
    44   26   45 1
    45   27   28 1
    46   27   46 1
    47   27   47 1
    48   28   29 1
    49   28   30 1
    50   28   31 1
    51   29   48 1
    52   29   49 1
    53   29   50 1
    54   30   51 1
    55   30   52 1
    56   30   53 1
    57   31   54 1
    58   31   55 1
    59   31   56 1
@<TRIPOS>MOLECULE
CHEMBL271863__1
   56    59     0     0     0
SMALL
USER_CHARGES

@<TRIPOS>ATOM
      1 C1         -0.0187    1.5258    0.0104 C.3       1 <0>        -0.1686
      2 C2          0.0021   -0.0041    0.0020 C.3       1 <0>         0.1200
      3 C3          0.7222   -0.4976   -1.2516 C.3       1 <0>         0.1052
      4 N1          2.1617   -0.2761   -1.1972 N.am      1 <0>        -0.7285
      5 C4          2.8705   -0.4441   -0.0556 C.2       1 <0>         0.5922
      6 O1          4.0850   -0.3819   -0.0404 O.2       1 <0>        -0.5060
      7 C5          2.0896   -0.7064    1.1700 C.2       1 <0>         0.0129
      8 N2          0.7113   -0.4909    1.1900 N.pl3     1 <0>        -0.4607
      9 C6          0.2465   -0.8036    2.4237 C.ar      1 <0>         0.1158
     10 C7         -1.0312   -0.7684    2.9763 C.ar      1 <0>        -0.0518
     11 C8         -1.1570   -1.1690    4.3088 C.ar      1 <0>        -0.1073
     12 C9         -0.0551   -1.5886    5.0628 C.ar      1 <0>        -0.1280
     13 C10         1.2075   -1.6297    4.5387 C.ar      1 <0>        -0.0491
     14 C11         1.3596   -1.2310    3.2008 C.ar      1 <0>        -0.0990
     15 C12         2.4958   -1.1540    2.3764 C.2       1 <0>        -0.0997
     16 C13        -2.4920   -1.1487    4.9405 C.2       1 <0>         0.5662
     17 O2         -3.4612   -0.7870    4.3019 O.2       1 <0>        -0.4988
     18 N3         -2.6357   -1.5312    6.2249 N.am      1 <0>        -0.6036
     19 C14        -3.8900   -1.5121    6.8184 C.2       1 <0>         0.2689
     20 N4         -4.2318   -1.8389    8.0482 N.2       1 <0>        -0.4990
     21 C15        -5.5178   -1.7386    8.3968 C.2       1 <0>         0.0006
     22 C16        -6.4225   -1.3034    7.4694 C.2       1 <0>        -0.2393
     23 S1         -5.4583   -1.0312    6.1174 S.3       1 <0>         0.2655
     24 C17        -5.9533   -2.0916    9.7579 C.2       1 <0>         0.5909
     25 O3         -7.1266   -1.9970   10.0648 O.2       1 <0>        -0.5360
     26 N5         -5.0521   -2.5195   10.6641 N.am      1 <0>        -0.7111
     27 C18        -5.4855   -2.8708   12.0187 C.3       1 <0>         0.1273
     28 C19        -4.2762   -3.3223   12.8400 C.3       1 <0>        -0.0814
     29 C20        -3.2543   -2.1858   12.9102 C.3       1 <0>        -0.1441
     30 C21        -4.7288   -3.6892   14.2548 C.3       1 <0>        -0.1405
     31 C22        -3.6362   -4.5434   12.1766 C.3       1 <0>        -0.1441
     32 H1          1.0039    1.9031    0.0027 H         1 <0>         0.0658
     33 H2         -0.5459    1.8868   -0.8726 H         1 <0>         0.0839
     34 H3         -0.5289    1.8773    0.9072 H         1 <0>         0.0701
     35 H4         -1.0203   -0.3820    0.0080 H         1 <0>         0.1187
     36 H5          0.5345   -1.5650   -1.3680 H         1 <0>         0.0778
     37 H6          0.3181    0.0252   -2.1184 H         1 <0>         0.1105
     38 H7          2.6259    0.0003   -2.0028 H         1 <0>         0.4115
     39 H8         -1.8863   -0.4456    2.4010 H         1 <0>         0.1472
     40 H9         -0.2063   -1.8886    6.0893 H         1 <0>         0.1255
     41 H10         2.0517   -1.9550    5.1287 H         1 <0>         0.1455
     42 H11         3.5076   -1.4074    2.6569 H         1 <0>         0.1628
     43 H12        -1.8623   -1.8198    6.7344 H         1 <0>         0.4274
     44 H13        -7.4880   -1.1647    7.5783 H         1 <0>         0.2091
     45 H14        -4.1165   -2.5949   10.4193 H         1 <0>         0.4089
     46 H15        -5.9414   -2.0009   12.4913 H         1 <0>         0.0700
     47 H16        -6.2135   -3.6805   11.9687 H         1 <0>         0.0700
     48 H17        -3.7102   -1.3158   13.3828 H         1 <0>         0.0581
     49 H18        -2.3927   -2.5074   13.4953 H         1 <0>         0.0601
     50 H19        -2.9318   -1.9244   11.9023 H         1 <0>         0.0551
     51 H20        -5.4568   -4.4989   14.2048 H         1 <0>         0.0590
     52 H21        -3.8673   -4.0108   14.8399 H         1 <0>         0.0619
     53 H22        -5.1847   -2.8192   14.7274 H         1 <0>         0.0590
     54 H23        -3.3137   -4.2820   11.1687 H         1 <0>         0.0551
     55 H24        -2.7746   -4.8650   12.7617 H         1 <0>         0.0601
     56 H25        -4.3642   -5.3531   12.1266 H         1 <0>         0.0581
@<TRIPOS>BOND
     1    1    2 1
     2    1   32 1
     3    1   33 1
     4    1   34 1
     5    2    8 1
     6    2    3 1
     7    2   35 1
     8    3    4 1
     9    3   36 1
    10    3   37 1
    11    4    5 am
    12    4   38 1
    13    5    6 2
    14    5    7 1
    15    7   15 2
    16    7    8 1
    17    8    9 1
    18    9   14 ar
    19    9   10 ar
    20   10   11 ar
    21   10   39 1
    22   11   12 ar
    23   11   16 1
    24   12   13 ar
    25   12   40 1
    26   13   14 ar
    27   13   41 1
    28   14   15 1
    29   15   42 1
    30   16   17 2
    31   16   18 am
    32   18   19 1
    33   18   43 1
    34   19   23 1
    35   19   20 2
    36   20   21 1
    37   21   22 2
    38   21   24 1
    39   22   23 1
    40   22   44 1
    41   24   25 2
    42   24   26 am
    43   26   27 1
    44   26   45 1
    45   27   28 1
    46   27   46 1
    47   27   47 1
    48   28   29 1
    49   28   30 1
    50   28   31 1
    51   29   48 1
    52   29   49 1
    53   29   50 1
    54   30   51 1
    55   30   52 1
    56   30   53 1
    57   31   54 1
    58   31   55 1
    59   31   56 1
@<TRIPOS>MOLECULE
CHEMBL255605
   43    46     0     0     0
SMALL
USER_CHARGES

@<TRIPOS>ATOM
      1 C1          0.9533   -0.4397    0.7109 C.ar      1 <0>        -0.1506
      2 C2          2.1967    0.1712    0.7273 C.ar      1 <0>        -0.0776
      3 C3          2.3684    1.3415   -0.0075 C.ar      1 <0>         0.0898
      4 C4          1.2936    1.8503   -0.7254 C.ar      1 <0>         0.0816
      5 N1          0.1269    1.2375   -0.7132 N.ar      1 <0>        -0.4631
      6 C5         -0.0680    0.1276   -0.0280 C.ar      1 <0>         0.0866
      7 N2          3.6049    1.9954   -0.0221 N.am      1 <0>        -0.6629
      8 C6          4.7453    1.2824    0.0649 C.2       1 <0>         0.5638
      9 O1          4.7045    0.0672    0.0594 O.2       1 <0>        -0.5162
     10 C7          6.0441    1.9768    0.1670 C.ar      1 <0>        -0.1546
     11 C8          6.0888    3.3792    0.1791 C.ar      1 <0>        -0.0530
     12 C9          7.2798    4.0337    0.2739 C.ar      1 <0>        -0.1252
     13 C10         8.4726    3.3179    0.3601 C.ar      1 <0>         0.1358
     14 C11         8.4457    1.9041    0.3485 C.ar      1 <0>        -0.1118
     15 C12         7.2184    1.2403    0.2566 C.ar      1 <0>         0.0086
     16 C13         9.7806    1.4745    0.4463 C.2       1 <0>        -0.1093
     17 C14        10.5753    2.5886    0.5135 C.2       1 <0>        -0.0024
     18 N3          9.7884    3.7074    0.4632 N.pl3     1 <0>        -0.5379
     19 H1         10.1059    4.6234    0.4945 H         1 <0>         0.4322
     20 C15        12.0401    2.4538    0.6191 C.2       1 <0>         0.5944
     21 O2         12.7807    3.4027    0.4437 O.2       1 <0>        -0.4946
     22 N4         12.5219    1.2262    0.9197 N.am      1 <0>        -0.7396
     23 C16        11.6583    0.1126    1.2901 C.3       1 <0>         0.1277
     24 C17        10.3595    0.0849    0.4825 C.3       1 <0>        -0.0658
     25 C18        11.3148    0.2261    2.7767 C.3       1 <0>        -0.0327
     26 N5         12.5544    0.3021    3.5613 N.4       1 <0>        -0.6362
     27 H2          0.7851   -1.3510    1.2656 H         1 <0>         0.1415
     28 H3          3.0125   -0.2498    1.2962 H         1 <0>         0.1448
     29 H4          1.4151    2.7573   -1.2989 H         1 <0>         0.1583
     30 H5         -1.0392   -0.3446   -0.0442 H         1 <0>         0.1615
     31 H6          3.6416    2.9619   -0.0949 H         1 <0>         0.4134
     32 H7          5.1710    3.9446    0.1123 H         1 <0>         0.1380
     33 H8          7.2999    5.1134    0.2819 H         1 <0>         0.1380
     34 H9          7.1840    0.1608    0.2512 H         1 <0>         0.1451
     35 H10        13.4805    1.0815    0.8876 H         1 <0>         0.4152
     36 H11        12.1963   -0.8209    1.1248 H         1 <0>         0.1292
     37 H12         9.6499   -0.5942    0.9552 H         1 <0>         0.1135
     38 H13        10.5680   -0.2506   -0.5334 H         1 <0>         0.1115
     39 H14        10.7224    1.1254    2.9451 H         1 <0>         0.1374
     40 H15        10.7426   -0.6489    3.0852 H         1 <0>         0.1545
     41 H16        12.3278    0.3769    4.5417 H         1 <0>         0.4420
     42 H17        13.1027   -0.5305    3.4054 H         1 <0>         0.4361
     43 H18        13.0840    1.1120    3.2758 H         1 <0>         0.4329
@<TRIPOS>BOND
     1    1    6 ar
     2    1    2 ar
     3    1   27 1
     4    2    3 ar
     5    2   28 1
     6    3    4 ar
     7    3    7 1
     8    4    5 ar
     9    4   29 1
    10    5    6 ar
    11    6   30 1
    12    7    8 am
    13    7   31 1
    14    8    9 2
    15    8   10 1
    16   10   15 ar
    17   10   11 ar
    18   11   12 ar
    19   11   32 1
    20   12   13 ar
    21   12   33 1
    22   13   18 1
    23   13   14 ar
    24   14   15 ar
    25   14   16 1
    26   15   34 1
    27   16   24 1
    28   16   17 2
    29   17   18 1
    30   17   20 1
    31   18   19 1
    32   20   21 2
    33   20   22 am
    34   22   23 1
    35   22   35 1
    36   23   24 1
    37   23   25 1
    38   23   36 1
    39   24   37 1
    40   24   38 1
    41   25   26 1
    42   25   39 1
    43   25   40 1
    44   26   41 1
    45   26   42 1
    46   26   43 1
@<TRIPOS>MOLECULE
CHEMBL255605__1
   43    46     0     0     0
SMALL
USER_CHARGES

@<TRIPOS>ATOM
      1 C1          0.9533   -0.4397    0.7109 C.ar      1 <0>        -0.1500
      2 C2          2.1967    0.1712    0.7273 C.ar      1 <0>        -0.0774
      3 C3          2.3684    1.3415   -0.0075 C.ar      1 <0>         0.0896
      4 C4          1.2936    1.8503   -0.7254 C.ar      1 <0>         0.0810
      5 N1          0.1269    1.2375   -0.7132 N.ar      1 <0>        -0.4635
      6 C5         -0.0680    0.1276   -0.0280 C.ar      1 <0>         0.0865
      7 N2          3.6049    1.9954   -0.0221 N.am      1 <0>        -0.6628
      8 C6          4.7453    1.2824    0.0649 C.2       1 <0>         0.5638
      9 O1          4.7045    0.0672    0.0594 O.2       1 <0>        -0.5163
     10 C7          6.0441    1.9768    0.1670 C.ar      1 <0>        -0.1547
     11 C8          6.0888    3.3792    0.1790 C.ar      1 <0>        -0.0530
     12 C9          7.2800    4.0337    0.2716 C.ar      1 <0>        -0.1253
     13 C10         8.4729    3.3179    0.3565 C.ar      1 <0>         0.1359
     14 C11         8.4458    1.9042    0.3470 C.ar      1 <0>        -0.1119
     15 C12         7.2184    1.2403    0.2566 C.ar      1 <0>         0.0088
     16 C13         9.7807    1.4745    0.4448 C.2       1 <0>        -0.1093
     17 C14        10.5756    2.5886    0.5105 C.2       1 <0>        -0.0024
     18 N3          9.7890    3.7074    0.4560 N.pl3     1 <0>        -0.5380
     19 H1         10.1068    4.6235    0.4831 H         1 <0>         0.4322
     20 C15        12.0397    2.4538    0.6234 C.2       1 <0>         0.5944
     21 O2         12.7451    3.4000    0.9182 O.2       1 <0>        -0.4946
     22 N4         12.5622    1.2294    0.3834 N.am      1 <0>        -0.7395
     23 C16        11.7646    0.1211   -0.1248 C.3       1 <0>         0.1278
     24 C17        10.3598    0.0849    0.4790 C.3       1 <0>        -0.0658
     25 C18        11.6468    0.2522   -1.6446 C.3       1 <0>        -0.0327
     26 N5         12.9897    0.3362   -2.2344 N.4       1 <0>        -0.6362
     27 H2          0.7851   -1.3510    1.2656 H         1 <0>         0.1419
     28 H3          3.0125   -0.2498    1.2962 H         1 <0>         0.1454
     29 H4          1.4151    2.7573   -1.2989 H         1 <0>         0.1579
     30 H5         -1.0392   -0.3446   -0.0442 H         1 <0>         0.1615
     31 H6          3.6416    2.9619   -0.0949 H         1 <0>         0.4133
     32 H7          5.1709    3.9446    0.1139 H         1 <0>         0.1379
     33 H8          7.3001    5.1135    0.2789 H         1 <0>         0.1380
     34 H9          7.1839    0.1608    0.2521 H         1 <0>         0.1452
     35 H10        13.5055    1.0836    0.5563 H         1 <0>         0.4152
     36 H11        12.2726   -0.8148    0.1080 H         1 <0>         0.1292
     37 H12        10.4142   -0.2629    1.5106 H         1 <0>         0.1115
     38 H13         9.7295   -0.5879   -0.1026 H         1 <0>         0.1136
     39 H14        11.1279   -0.6186   -2.0453 H         1 <0>         0.1546
     40 H15        11.0856    1.1540   -1.8891 H         1 <0>         0.1374
     41 H16        12.9120    0.4227   -3.2367 H         1 <0>         0.4420
     42 H17        13.4700    1.1423   -1.8634 H         1 <0>         0.4328
     43 H18        13.5092   -0.4986   -2.0081 H         1 <0>         0.4361
@<TRIPOS>BOND
     1    1    6 ar
     2    1    2 ar
     3    1   27 1
     4    2    3 ar
     5    2   28 1
     6    3    4 ar
     7    3    7 1
     8    4    5 ar
     9    4   29 1
    10    5    6 ar
    11    6   30 1
    12    7    8 am
    13    7   31 1
    14    8    9 2
    15    8   10 1
    16   10   15 ar
    17   10   11 ar
    18   11   12 ar
    19   11   32 1
    20   12   13 ar
    21   12   33 1
    22   13   18 1
    23   13   14 ar
    24   14   15 ar
    25   14   16 1
    26   15   34 1
    27   16   24 1
    28   16   17 2
    29   17   18 1
    30   17   20 1
    31   18   19 1
    32   20   21 2
    33   20   22 am
    34   22   23 1
    35   22   35 1
    36   23   24 1
    37   23   25 1
    38   23   36 1
    39   24   37 1
    40   24   38 1
    41   25   26 1
    42   25   39 1
    43   25   40 1
    44   26   41 1
    45   26   42 1
    46   26   43 1
@<TRIPOS>MOLECULE
CHEMBL429922
   43    46     0     0     0
SMALL
USER_CHARGES

@<TRIPOS>ATOM
      1 C1         -0.0169    1.3976    0.0097 C.ar      1 <0>        -0.0528
      2 C2          1.1518    2.0957    0.0023 C.ar      1 <0>        -0.1183
      3 C3          2.3816    1.4222   -0.0143 C.ar      1 <0>        -0.0947
      4 C4          2.4209    0.0315   -0.0222 C.ar      1 <0>        -0.0687
      5 C5          1.2350   -0.6917   -0.0128 C.ar      1 <0>         0.1026
      6 C6          0.0021   -0.0041    0.0020 C.ar      1 <0>        -0.0903
      7 C7         -1.0206   -0.9864    0.0060 C.2       1 <0>        -0.1027
      8 C8         -0.4206   -2.1935   -0.0002 C.2       1 <0>         0.0163
      9 N1          0.9536   -2.0350   -0.0129 N.pl3     1 <0>        -0.4744
     10 C9          1.8992   -3.1522   -0.0191 C.3       1 <0>         0.1169
     11 C10         1.8967   -3.8431    1.3500 C.3       1 <0>        -0.1589
     12 C11         0.4620   -3.9825    1.8560 C.3       1 <0>         0.1012
     13 N2         -0.4684   -4.4428    0.8370 N.am      1 <0>        -0.7290
     14 C12        -1.0412   -3.5404    0.0033 C.2       1 <0>         0.5912
     15 O1         -1.9990   -3.8160   -0.6938 O.2       1 <0>        -0.4755
     16 C13         2.7074   -3.0078    2.3430 C.3       1 <0>        -0.0061
     17 N3          2.8065   -3.7259    3.6207 N.4       1 <0>        -0.6373
     18 C14         3.6415    2.1931   -0.0239 C.2       1 <0>         0.5572
     19 O2          4.7094    1.6123   -0.0383 O.2       1 <0>        -0.4694
     20 N4          3.6072    3.5404   -0.0167 N.am      1 <0>        -0.6159
     21 C15         4.7918    4.2653   -0.0258 C.2       1 <0>         0.2592
     22 N5          6.0271    3.8128   -0.0471 N.2       1 <0>        -0.5203
     23 C16         7.0564    4.6393   -0.0530 C.2       1 <0>         0.0576
     24 C17         6.7809    5.9667   -0.0362 C.2       1 <0>        -0.2341
     25 S1          4.9958    5.9359   -0.0195 S.3       1 <0>         0.1234
     26 H1         -0.9597    1.9242    0.0261 H         1 <0>         0.1414
     27 H2          1.1316    3.1755    0.0089 H         1 <0>         0.1325
     28 H3          3.3700   -0.4838   -0.0359 H         1 <0>         0.1367
     29 H4         -2.0846   -0.8015    0.0128 H         1 <0>         0.1635
     30 H5          1.6082   -3.8688   -0.7872 H         1 <0>         0.1083
     31 H6          2.9002   -2.7784   -0.2344 H         1 <0>         0.1122
     32 H7          2.3461   -4.8319    1.2578 H         1 <0>         0.1235
     33 H8          0.4510   -4.6906    2.6846 H         1 <0>         0.0900
     34 H9          0.1257   -3.0131    2.2239 H         1 <0>         0.0898
     35 H10        -0.6767   -5.3865    0.7546 H         1 <0>         0.4163
     36 H11         3.7071   -2.8376    1.9433 H         1 <0>         0.1464
     37 H12         2.2117   -2.0501    2.5019 H         1 <0>         0.1383
     38 H13         1.8811   -3.8834    3.9906 H         1 <0>         0.4337
     39 H14         3.2654   -4.6124    3.4735 H         1 <0>         0.4381
     40 H15         2.7551    4.0039   -0.0052 H         1 <0>         0.4270
     41 H16         8.0727    4.2744   -0.0701 H         1 <0>         0.1785
     42 H17         7.4553    6.8102   -0.0366 H         1 <0>         0.2028
     43 H18         3.3412   -3.1750    4.2755 H         1 <0>         0.4437
@<TRIPOS>BOND
     1    1    6 ar
     2    1    2 ar
     3    1   26 1
     4    2    3 ar
     5    2   27 1
     6    3    4 ar
     7    3   18 1
     8    4    5 ar
     9    4   28 1
    10    5    9 1
    11    5    6 ar
    12    6    7 1
    13    7    8 2
    14    7   29 1
    15    8   14 1
    16    8    9 1
    17    9   10 1
    18   10   11 1
    19   10   30 1
    20   10   31 1
    21   11   12 1
    22   11   16 1
    23   11   32 1
    24   12   13 1
    25   12   33 1
    26   12   34 1
    27   13   14 am
    28   13   35 1
    29   14   15 2
    30   16   17 1
    31   16   36 1
    32   16   37 1
    33   17   38 1
    34   17   39 1
    35   17   43 1
    36   18   19 2
    37   18   20 am
    38   20   21 1
    39   20   40 1
    40   21   25 1
    41   21   22 2
    42   22   23 1
    43   23   24 2
    44   23   41 1
    45   24   25 1
    46   24   42 1
@<TRIPOS>MOLECULE
CHEMBL429922__1
   43    46     0     0     0
SMALL
USER_CHARGES

@<TRIPOS>ATOM
      1 C1         -0.0169    1.3976    0.0097 C.ar      1 <0>        -0.0539
      2 C2          1.1518    2.0957    0.0023 C.ar      1 <0>        -0.1175
      3 C3          2.3816    1.4222   -0.0143 C.ar      1 <0>        -0.0949
      4 C4          2.4209    0.0315   -0.0222 C.ar      1 <0>        -0.0630
      5 C5          1.2350   -0.6917   -0.0128 C.ar      1 <0>         0.1093
      6 C6          0.0021   -0.0041    0.0020 C.ar      1 <0>        -0.0919
      7 C7         -1.0206   -0.9864    0.0060 C.2       1 <0>        -0.0984
      8 C8         -0.4206   -2.1935   -0.0002 C.2       1 <0>         0.0101
      9 N1          0.9536   -2.0350   -0.0129 N.pl3     1 <0>        -0.4711
     10 C9          1.8992   -3.1522   -0.0191 C.3       1 <0>         0.1203
     11 C10         1.8967   -3.8431    1.3500 C.3       1 <0>        -0.1597
     12 C11         0.4620   -3.9825    1.8560 C.3       1 <0>         0.1034
     13 N2         -0.4684   -4.4428    0.8370 N.am      1 <0>        -0.7373
     14 C12        -1.0412   -3.5404    0.0033 C.2       1 <0>         0.5947
     15 O1         -1.9990   -3.8160   -0.6938 O.2       1 <0>        -0.4758
     16 C13         2.5275   -5.2310    1.2206 C.3       1 <0>        -0.0042
     17 N3          2.6350   -5.8460    2.5504 N.4       1 <0>        -0.6375
     18 C14         3.6415    2.1931   -0.0239 C.2       1 <0>         0.5577
     19 O2          4.7094    1.6123   -0.0383 O.2       1 <0>        -0.4681
     20 N4          3.6072    3.5404   -0.0167 N.am      1 <0>        -0.6163
     21 C15         4.7918    4.2653   -0.0258 C.2       1 <0>         0.2616
     22 N5          6.0271    3.8128   -0.0471 N.2       1 <0>        -0.5210
     23 C16         7.0564    4.6393   -0.0530 C.2       1 <0>         0.0585
     24 C17         6.7809    5.9667   -0.0362 C.2       1 <0>        -0.2358
     25 S1          4.9958    5.9359   -0.0195 S.3       1 <0>         0.1217
     26 H1         -0.9597    1.9242    0.0261 H         1 <0>         0.1414
     27 H2          1.1316    3.1755    0.0089 H         1 <0>         0.1327
     28 H3          3.3700   -0.4838   -0.0359 H         1 <0>         0.1376
     29 H4         -2.0846   -0.8015    0.0128 H         1 <0>         0.1637
     30 H5          1.6082   -3.8688   -0.7872 H         1 <0>         0.0980
     31 H6          2.9002   -2.7784   -0.2344 H         1 <0>         0.1127
     32 H7          2.4743   -3.2480    2.0574 H         1 <0>         0.1218
     33 H8          0.4510   -4.6906    2.6846 H         1 <0>         0.0806
     34 H9          0.1257   -3.0131    2.2239 H         1 <0>         0.1039
     35 H10        -0.6767   -5.3865    0.7546 H         1 <0>         0.4100
     36 H11         1.9038   -5.8554    0.5809 H         1 <0>         0.1387
     37 H12         3.5209   -5.1391    0.7815 H         1 <0>         0.1460
     38 H13         3.2123   -5.2680    3.1426 H         1 <0>         0.4389
     39 H14         1.7154   -5.9311    2.9569 H         1 <0>         0.4320
     40 H15         2.7551    4.0039   -0.0052 H         1 <0>         0.4269
     41 H16         8.0727    4.2744   -0.0701 H         1 <0>         0.1781
     42 H17         7.4553    6.8102   -0.0366 H         1 <0>         0.2024
     43 H18         3.0510   -6.7613    2.4650 H         1 <0>         0.4441
@<TRIPOS>BOND
     1    1    6 ar
     2    1    2 ar
     3    1   26 1
     4    2    3 ar
     5    2   27 1
     6    3    4 ar
     7    3   18 1
     8    4    5 ar
     9    4   28 1
    10    5    9 1
    11    5    6 ar
    12    6    7 1
    13    7    8 2
    14    7   29 1
    15    8   14 1
    16    8    9 1
    17    9   10 1
    18   10   11 1
    19   10   30 1
    20   10   31 1
    21   11   12 1
    22   11   16 1
    23   11   32 1
    24   12   13 1
    25   12   33 1
    26   12   34 1
    27   13   14 am
    28   13   35 1
    29   14   15 2
    30   16   17 1
    31   16   36 1
    32   16   37 1
    33   17   38 1
    34   17   39 1
    35   17   43 1
    36   18   19 2
    37   18   20 am
    38   20   21 1
    39   20   40 1
    40   21   25 1
    41   21   22 2
    42   22   23 1
    43   23   24 2
    44   23   41 1
    45   24   25 1
    46   24   42 1
@<TRIPOS>MOLECULE
CHEMBL272309
   46    49     0     0     0
SMALL
USER_CHARGES

@<TRIPOS>ATOM
      1 C1          0.9533   -0.4396    0.7110 C.ar      1 <0>        -0.1504
      2 C2          2.1967    0.1711    0.7274 C.ar      1 <0>        -0.0773
      3 C3          2.3684    1.3415   -0.0075 C.ar      1 <0>         0.0877
      4 C4          1.2936    1.8503   -0.7254 C.ar      1 <0>         0.0825
      5 N1          0.1270    1.2372   -0.7136 N.ar      1 <0>        -0.4629
      6 C5         -0.0680    0.1276   -0.0280 C.ar      1 <0>         0.0880
      7 N2          3.6048    1.9953   -0.0221 N.am      1 <0>        -0.6593
      8 C6          4.7452    1.2823    0.0649 C.2       1 <0>         0.5624
      9 O1          4.7044    0.0672    0.0594 O.2       1 <0>        -0.5197
     10 C7          6.0448    1.9772    0.1670 C.ar      1 <0>        -0.0989
     11 C8          6.0875    3.3790    0.1789 C.ar      1 <0>        -0.1165
     12 C9          7.2779    4.0320    0.2724 C.ar      1 <0>        -0.0542
     13 C10         8.4737    3.3044    0.3553 C.ar      1 <0>        -0.0901
     14 C11         9.8353    3.6876    0.4554 C.2       1 <0>        -0.1029
     15 C12        10.5699    2.5582    0.4995 C.2       1 <0>         0.0163
     16 N3          9.7388    1.4544    0.4360 N.pl3     1 <0>        -0.4747
     17 C13         8.4416    1.8935    0.3451 C.ar      1 <0>         0.1012
     18 C14         7.2195    1.2380    0.2567 C.ar      1 <0>        -0.0696
     19 C15        10.2213    0.0729    0.4605 C.3       1 <0>         0.1173
     20 C16        10.9169   -0.2586   -0.8653 C.3       1 <0>        -0.1590
     21 C17        11.7985    0.9132   -1.2935 C.3       1 <0>         0.1011
     22 N4         12.5897    1.4692   -0.2068 N.am      1 <0>        -0.7289
     23 C18        12.0419    2.4096    0.6007 C.2       1 <0>         0.5909
     24 O2         12.7123    3.0862    1.3570 O.2       1 <0>        -0.4756
     25 C19         9.8617   -0.5214   -1.9416 C.3       1 <0>        -0.0057
     26 N5         10.5227   -0.9553   -3.1797 N.4       1 <0>        -0.6374
     27 H1          0.7850   -1.3510    1.2656 H         1 <0>         0.1419
     28 H2          3.0125   -0.2498    1.2963 H         1 <0>         0.1447
     29 H3          1.4150    2.7575   -1.2987 H         1 <0>         0.1587
     30 H4         -1.0392   -0.3446   -0.0442 H         1 <0>         0.1621
     31 H5          3.6415    2.9619   -0.0949 H         1 <0>         0.4156
     32 H6          5.1694    3.9440    0.1138 H         1 <0>         0.1334
     33 H7          7.3016    5.1117    0.2824 H         1 <0>         0.1407
     34 H8         10.2141    4.6984    0.4898 H         1 <0>         0.1634
     35 H9          7.1823    0.1586    0.2531 H         1 <0>         0.1358
     36 H10        10.9282   -0.0494    1.2811 H         1 <0>         0.1082
     37 H11         9.3784   -0.6027    0.6062 H         1 <0>         0.1117
     38 H12        11.5334   -1.1485   -0.7385 H         1 <0>         0.1235
     39 H13        12.4737    0.5736   -2.0789 H         1 <0>         0.0901
     40 H14        11.1618    1.6992   -1.6997 H         1 <0>         0.0897
     41 H15        13.5006    1.1693   -0.0613 H         1 <0>         0.4164
     42 H16         9.1811   -1.3014   -1.6004 H         1 <0>         0.1460
     43 H17         9.3002    0.3935   -2.1309 H         1 <0>         0.1382
     44 H18        11.1527   -0.2332   -3.4955 H         1 <0>         0.4339
     45 H19        11.0425   -1.8022   -3.0044 H         1 <0>         0.4381
     46 H20         9.8268   -1.1286   -3.8895 H         1 <0>         0.4437
@<TRIPOS>BOND
     1    1    6 ar
     2    1    2 ar
     3    1   27 1
     4    2    3 ar
     5    2   28 1
     6    3    4 ar
     7    3    7 1
     8    4    5 ar
     9    4   29 1
    10    5    6 ar
    11    6   30 1
    12    7    8 am
    13    7   31 1
    14    8    9 2
    15    8   10 1
    16   10   18 ar
    17   10   11 ar
    18   11   12 ar
    19   11   32 1
    20   12   13 ar
    21   12   33 1
    22   13   17 ar
    23   13   14 1
    24   14   15 2
    25   14   34 1
    26   15   23 1
    27   15   16 1
    28   16   17 1
    29   16   19 1
    30   17   18 ar
    31   18   35 1
    32   19   20 1
    33   19   36 1
    34   19   37 1
    35   20   21 1
    36   20   25 1
    37   20   38 1
    38   21   22 1
    39   21   39 1
    40   21   40 1
    41   22   23 am
    42   22   41 1
    43   23   24 2
    44   25   26 1
    45   25   42 1
    46   25   43 1
    47   26   44 1
    48   26   45 1
    49   26   46 1
@<TRIPOS>MOLECULE
CHEMBL272309__1
   46    49     0     0     0
SMALL
USER_CHARGES

@<TRIPOS>ATOM
      1 C1          0.9533   -0.4396    0.7110 C.ar      1 <0>        -0.1506
      2 C2          2.1967    0.1711    0.7274 C.ar      1 <0>        -0.0777
      3 C3          2.3684    1.3415   -0.0075 C.ar      1 <0>         0.0894
      4 C4          1.2936    1.8503   -0.7254 C.ar      1 <0>         0.0822
      5 N1          0.1270    1.2372   -0.7136 N.ar      1 <0>        -0.4630
      6 C5         -0.0680    0.1276   -0.0280 C.ar      1 <0>         0.0868
      7 N2          3.6048    1.9953   -0.0221 N.am      1 <0>        -0.6600
      8 C6          4.7452    1.2823    0.0649 C.2       1 <0>         0.5631
      9 O1          4.7044    0.0672    0.0594 O.2       1 <0>        -0.5184
     10 C7          6.0448    1.9772    0.1670 C.ar      1 <0>        -0.0992
     11 C8          6.0875    3.3790    0.1789 C.ar      1 <0>        -0.1157
     12 C9          7.2779    4.0320    0.2724 C.ar      1 <0>        -0.0554
     13 C10         8.4737    3.3044    0.3553 C.ar      1 <0>        -0.0918
     14 C11         9.8353    3.6876    0.4554 C.2       1 <0>        -0.0986
     15 C12        10.5699    2.5582    0.4995 C.2       1 <0>         0.0100
     16 N3          9.7388    1.4544    0.4360 N.pl3     1 <0>        -0.4714
     17 C13         8.4416    1.8935    0.3451 C.ar      1 <0>         0.1080
     18 C14         7.2195    1.2380    0.2567 C.ar      1 <0>        -0.0641
     19 C15        10.2213    0.0729    0.4605 C.3       1 <0>         0.1207
     20 C16        10.9169   -0.2586   -0.8653 C.3       1 <0>        -0.1596
     21 C17        11.7985    0.9132   -1.2935 C.3       1 <0>         0.1033
     22 N4         12.5897    1.4692   -0.2068 N.am      1 <0>        -0.7372
     23 C18        12.0419    2.4096    0.6007 C.2       1 <0>         0.5945
     24 O2         12.7123    3.0862    1.3570 O.2       1 <0>        -0.4758
     25 C19        11.7822   -1.5078   -0.6873 C.3       1 <0>        -0.0042
     26 N5         12.3541   -1.8960   -1.9835 N.4       1 <0>        -0.6375
     27 H1          0.7850   -1.3510    1.2656 H         1 <0>         0.1415
     28 H2          3.0125   -0.2498    1.2963 H         1 <0>         0.1446
     29 H3          1.4150    2.7575   -1.2987 H         1 <0>         0.1589
     30 H4         -1.0392   -0.3446   -0.0442 H         1 <0>         0.1616
     31 H5          3.6415    2.9619   -0.0949 H         1 <0>         0.4155
     32 H6          5.1694    3.9440    0.1138 H         1 <0>         0.1336
     33 H7          7.3016    5.1117    0.2824 H         1 <0>         0.1407
     34 H8         10.2141    4.6984    0.4898 H         1 <0>         0.1635
     35 H9          7.1823    0.1586    0.2531 H         1 <0>         0.1367
     36 H10        10.9282   -0.0494    1.2811 H         1 <0>         0.0978
     37 H11         9.3784   -0.6027    0.6062 H         1 <0>         0.1122
     38 H12        10.1652   -0.4458   -1.6321 H         1 <0>         0.1216
     39 H13        12.4737    0.5736   -2.0789 H         1 <0>         0.0806
     40 H14        11.1618    1.6992   -1.6997 H         1 <0>         0.1038
     41 H15        13.5006    1.1693   -0.0613 H         1 <0>         0.4101
     42 H16        12.5873   -1.2949    0.0159 H         1 <0>         0.1388
     43 H17        11.1692   -2.3225   -0.3020 H         1 <0>         0.1458
     44 H18        11.6088   -2.0931   -2.6345 H         1 <0>         0.4388
     45 H19        12.9216   -1.1418   -2.3402 H         1 <0>         0.4321
     46 H20        12.9248   -2.7198   -1.8661 H         1 <0>         0.4441
@<TRIPOS>BOND
     1    1    6 ar
     2    1    2 ar
     3    1   27 1
     4    2    3 ar
     5    2   28 1
     6    3    4 ar
     7    3    7 1
     8    4    5 ar
     9    4   29 1
    10    5    6 ar
    11    6   30 1
    12    7    8 am
    13    7   31 1
    14    8    9 2
    15    8   10 1
    16   10   18 ar
    17   10   11 ar
    18   11   12 ar
    19   11   32 1
    20   12   13 ar
    21   12   33 1
    22   13   17 ar
    23   13   14 1
    24   14   15 2
    25   14   34 1
    26   15   23 1
    27   15   16 1
    28   16   17 1
    29   16   19 1
    30   17   18 ar
    31   18   35 1
    32   19   20 1
    33   19   36 1
    34   19   37 1
    35   20   21 1
    36   20   25 1
    37   20   38 1
    38   21   22 1
    39   21   39 1
    40   21   40 1
    41   22   23 am
    42   22   41 1
    43   23   24 2
    44   25   26 1
    45   25   42 1
    46   25   43 1
    47   26   44 1
    48   26   45 1
    49   26   46 1
@<TRIPOS>MOLECULE
CHEMBL389658
   39    42     0     0     0
SMALL
USER_CHARGES

@<TRIPOS>ATOM
      1 C1         -0.0168    1.3909    0.0097 C.ar      1 <0>        -0.0895
      2 C2          1.1654    2.0961    0.0022 C.ar      1 <0>        -0.0958
      3 C3          2.3856    1.4135   -0.0131 C.ar      1 <0>        -0.1115
      4 C4          2.4027    0.0155   -0.0208 C.ar      1 <0>        -0.0920
      5 C5          1.2187   -0.6867   -0.0133 C.ar      1 <0>        -0.1110
      6 C6          0.0021   -0.0041    0.0020 C.ar      1 <0>        -0.0806
      7 C7         -1.2725   -0.7621    0.0101 C.ar      1 <0>         0.2050
      8 C8         -1.2463   -2.1524    0.0081 C.ar      1 <0>        -0.1565
      9 C9         -2.4576   -2.8510    0.0159 C.ar      1 <0>         0.0369
     10 C10        -3.6483   -2.1129    0.0254 C.ar      1 <0>        -0.1999
     11 C11        -3.5859   -0.7345    0.0267 C.ar      1 <0>         0.1183
     12 N1         -2.4270   -0.1064    0.0247 N.ar      1 <0>        -0.4848
     13 C12        -2.4810   -4.3291    0.0137 C.2       1 <0>         0.0260
     14 C13        -1.3867   -5.1428    0.0103 C.2       1 <0>        -0.0814
     15 C14        -1.8631   -6.4600    0.0102 C.2       1 <0>        -0.2320
     16 C15        -3.2531   -6.4007    0.0119 C.2       1 <0>         0.0689
     17 N2         -3.6128   -5.1161    0.0207 N.pl3     1 <0>        -0.5116
     18 H1         -4.5256   -4.7880    0.0289 H         1 <0>         0.4184
     19 C16        -4.0844   -7.6579    0.0071 C.3       1 <0>        -0.0678
     20 C17        -3.3011   -8.7641   -0.7007 C.3       1 <0>         0.1254
     21 N3         -1.9166   -8.8513   -0.2573 N.am      1 <0>        -0.7377
     22 C18        -1.1649   -7.7574    0.0106 C.2       1 <0>         0.5975
     23 O1          0.0266   -7.8416    0.2397 O.2       1 <0>        -0.5305
     24 C19         3.6529    2.1673   -0.0217 C.2       1 <0>         0.5169
     25 O2          3.6371    3.3903   -0.0154 O.co2     1 <0>        -0.6846
     26 O3          4.7199    1.5696   -0.0351 O.co2     1 <0>        -0.6844
     27 H2         -0.9595    1.9177    0.0260 H         1 <0>         0.1276
     28 H3          1.1504    3.1760    0.0078 H         1 <0>         0.1304
     29 H4          3.3443   -0.5133   -0.0331 H         1 <0>         0.1317
     30 H5          1.2315   -1.7666   -0.0196 H         1 <0>         0.1194
     31 H6         -0.3061   -2.6838    0.0004 H         1 <0>         0.1438
     32 H7         -4.6035   -2.6167    0.0312 H         1 <0>         0.1234
     33 H8         -4.5011   -0.1611    0.0340 H         1 <0>         0.1567
     34 H9         -0.3525   -4.8318    0.0077 H         1 <0>         0.1547
     35 H10        -4.2965   -7.9595    1.0328 H         1 <0>         0.0940
     36 H11        -5.0192   -7.4758   -0.5230 H         1 <0>         0.0963
     37 H12        -3.7916   -9.7187   -0.5103 H         1 <0>         0.0918
     38 H13        -3.3148   -8.5727   -1.7737 H         1 <0>         0.0662
     39 H14        -1.5169   -9.7285   -0.1495 H         1 <0>         0.4022
@<TRIPOS>BOND
     1    1    6 ar
     2    1    2 ar
     3    1   27 1
     4    2    3 ar
     5    2   28 1
     6    3    4 ar
     7    3   24 1
     8    4    5 ar
     9    4   29 1
    10    5    6 ar
    11    5   30 1
    12    6    7 1
    13    7   12 ar
    14    7    8 ar
    15    8    9 ar
    16    8   31 1
    17    9   10 ar
    18    9   13 1
    19   10   11 ar
    20   10   32 1
    21   11   12 ar
    22   11   33 1
    23   13   17 1
    24   13   14 2
    25   14   15 1
    26   14   34 1
    27   15   22 1
    28   15   16 2
    29   16   17 1
    30   16   19 1
    31   17   18 1
    32   19   20 1
    33   19   35 1
    34   19   36 1
    35   20   21 1
    36   20   37 1
    37   20   38 1
    38   21   22 am
    39   21   39 1
    40   22   23 2
    41   24   25 2
    42   24   26 1
@<TRIPOS>MOLECULE
CHEMBL592031
   64    70     0     0     0
SMALL
USER_CHARGES

@<TRIPOS>ATOM
      1 C1         -0.0164    1.3550    0.0095 C.ar      1 <0>        -0.1199
      2 C2          1.1574    2.0971    0.0023 C.ar      1 <0>        -0.0910
      3 C3          2.3749    1.4455   -0.0129 C.ar      1 <0>        -0.0786
      4 C4          2.4083    0.0676   -0.0206 C.ar      1 <0>        -0.1104
      5 C5          1.2295   -0.7113   -0.0135 C.ar      1 <0>        -0.0904
      6 C6          0.0021   -0.0041    0.0020 C.ar      1 <0>        -0.0743
      7 C7          1.4485   -2.1470   -0.0234 C.2       1 <0>        -0.1218
      8 C8          2.7191   -2.6185   -0.0380 C.2       1 <0>        -0.0877
      9 S1          3.7106   -1.1371   -0.0395 S.3       1 <0>         0.0269
     10 C9          3.1737   -4.0242   -0.0504 C.ar      1 <0>        -0.0412
     11 C10         2.6581   -4.9311    0.8653 C.ar      1 <0>        -0.0289
     12 C11         3.0842   -6.2618    0.8585 C.ar      1 <0>        -0.0509
     13 C12         4.0273   -6.6917   -0.0635 C.ar      1 <0>         0.0057
     14 C13         4.5552   -5.7888   -0.9926 C.ar      1 <0>        -0.1758
     15 C14         4.1256   -4.4495   -0.9933 C.ar      1 <0>         0.1518
     16 N1          4.8021   -3.8175   -2.0018 N.pl3     1 <0>        -0.5033
     17 H1          4.7127   -2.8811   -2.2386 H         1 <0>         0.4414
     18 N2          5.6428   -4.7377   -2.6360 N.2       1 <0>        -0.2416
     19 C15         5.5347   -5.9056   -2.0694 C.2       1 <0>         0.0830
     20 C16         2.5252   -7.2202    1.8433 C.2       1 <0>        -0.1247
     21 C17         2.4286   -7.0381    3.1855 C.2       1 <0>         0.1038
     22 N3          1.8617   -8.1356    3.7607 N.pl3     1 <0>        -0.4671
     23 C18         1.5690   -9.0763    2.7969 C.ar      1 <0>        -0.0695
     24 C19         1.9647   -8.5439    1.5538 C.ar      1 <0>         0.1979
     25 N4          1.7811   -9.2643    0.4495 N.ar      1 <0>        -0.5370
     26 C20         1.2301  -10.4643    0.5220 C.ar      1 <0>         0.5562
     27 N5          0.8430  -10.9926    1.6764 N.ar      1 <0>        -0.5472
     28 C21         1.0001  -10.3437    2.8184 C.ar      1 <0>         0.2065
     29 N6          1.0507  -11.1927   -0.6439 N.pl3     1 <0>        -0.8228
     30 C22         1.6019   -8.2929    5.1939 C.3       1 <0>         0.1094
     31 C23         2.7659   -9.0436    5.8439 C.3       1 <0>        -0.1373
     32 C24         2.4945   -9.2078    7.3406 C.3       1 <0>        -0.0985
     33 C25         2.4858   -7.8322    8.0135 C.3       1 <0>        -0.1504
     34 C26         2.2933   -8.0091    9.5212 C.3       1 <0>        -0.0074
     35 N7          3.3916   -8.8154   10.0670 N.4       1 <0>        -0.5061
     36 C27         3.3623  -10.1600    9.4790 C.3       1 <0>        -0.0072
     37 C28         3.5960  -10.0659    7.9697 C.3       1 <0>        -0.1443
     38 H2         -0.9657    1.8696    0.0259 H         1 <0>         0.1302
     39 H3          1.1184    3.1764    0.0081 H         1 <0>         0.1371
     40 H4          3.2946    2.0117   -0.0190 H         1 <0>         0.1329
     41 H5         -0.9293   -0.5508    0.0084 H         1 <0>         0.1267
     42 H6          0.6111   -2.8290   -0.0187 H         1 <0>         0.1399
     43 H7          1.9237   -4.6061    1.5874 H         1 <0>         0.1333
     44 H8          4.3536   -7.7212   -0.0639 H         1 <0>         0.1325
     45 H9          6.0659   -6.8023   -2.3525 H         1 <0>         0.2015
     46 H10         2.7529   -6.1558    3.7173 H         1 <0>         0.1805
     47 H11         0.6792  -10.7860    3.7500 H         1 <0>         0.1613
     48 H12         1.3280  -10.8207   -1.4957 H         1 <0>         0.4163
     49 H13         0.6480  -12.0744   -0.6077 H         1 <0>         0.4153
     50 H14         1.5007   -7.3103    5.6548 H         1 <0>         0.0940
     51 H15         0.6805   -8.8576    5.3363 H         1 <0>         0.0910
     52 H16         2.8670  -10.0262    5.3830 H         1 <0>         0.0831
     53 H17         3.6872   -8.4789    5.7015 H         1 <0>         0.0800
     54 H18         1.5285   -9.6916    7.4850 H         1 <0>         0.0946
     55 H19         3.4337   -7.3284    7.8242 H         1 <0>         0.0923
     56 H20         1.6684   -7.2347    7.6098 H         1 <0>         0.1135
     57 H21         2.2865   -7.0315   10.0033 H         1 <0>         0.1342
     58 H22         1.3451   -8.5126    9.7093 H         1 <0>         0.1312
     59 H23         4.2723   -8.3735    9.8497 H         1 <0>         0.4282
     60 H24         4.1447  -10.7704    9.9300 H         1 <0>         0.1342
     61 H25         2.3913  -10.6177    9.6680 H         1 <0>         0.1312
     62 H26         3.5721  -11.0651    7.5347 H         1 <0>         0.1141
     63 H27         4.5669   -9.6085    7.7795 H         1 <0>         0.0906
     64 H28         3.2907   -8.8852   11.0686 H         1 <0>         0.4328
@<TRIPOS>BOND
     1    1    6 ar
     2    1    2 ar
     3    1   38 1
     4    2    3 ar
     5    2   39 1
     6    3    4 ar
     7    3   40 1
     8    4    9 1
     9    4    5 ar
    10    5    6 ar
    11    5    7 1
    12    6   41 1
    13    7    8 2
    14    7   42 1
    15    8    9 1
    16    8   10 1
    17   10   15 ar
    18   10   11 ar
    19   11   12 ar
    20   11   43 1
    21   12   13 ar
    22   12   20 1
    23   13   14 ar
    24   13   44 1
    25   14   19 1
    26   14   15 ar
    27   15   16 1
    28   16   17 1
    29   16   18 1
    30   18   19 2
    31   19   45 1
    32   20   24 1
    33   20   21 2
    34   21   22 1
    35   21   46 1
    36   22   23 1
    37   22   30 1
    38   23   28 ar
    39   23   24 ar
    40   24   25 ar
    41   25   26 ar
    42   26   27 ar
    43   26   29 1
    44   27   28 ar
    45   28   47 1
    46   29   48 1
    47   29   49 1
    48   30   31 1
    49   30   50 1
    50   30   51 1
    51   31   32 1
    52   31   52 1
    53   31   53 1
    54   32   37 1
    55   32   33 1
    56   32   54 1
    57   33   34 1
    58   33   55 1
    59   33   56 1
    60   34   35 1
    61   34   57 1
    62   34   58 1
    63   35   36 1
    64   35   59 1
    65   35   64 1
    66   36   37 1
    67   36   60 1
    68   36   61 1
    69   37   62 1
    70   37   63 1
@<TRIPOS>MOLECULE
CHEMBL226206
   48    52     0     0     0
SMALL
USER_CHARGES

@<TRIPOS>ATOM
      1 C1         -0.0168    1.3906    0.0097 C.ar      1 <0>        -0.0843
      2 C2          1.1659    2.0958    0.0022 C.ar      1 <0>        -0.0618
      3 C3          2.3848    1.4139   -0.0131 C.ar      1 <0>        -0.1248
      4 C4          2.4027    0.0173   -0.0207 C.ar      1 <0>        -0.0880
      5 C5          1.2188   -0.6859   -0.0132 C.ar      1 <0>        -0.1063
      6 C6          0.0021   -0.0041    0.0020 C.ar      1 <0>        -0.0244
      7 C7         -1.2724   -0.7625    0.0101 C.ar      1 <0>         0.1757
      8 C8         -1.2459   -2.1528    0.0081 C.ar      1 <0>        -0.1487
      9 C9         -2.4568   -2.8516    0.0157 C.ar      1 <0>         0.0434
     10 C10        -3.6478   -2.1138    0.0251 C.ar      1 <0>        -0.1830
     11 C11        -3.5858   -0.7355    0.0265 C.ar      1 <0>         0.1211
     12 N1         -2.4270   -0.1071    0.0246 N.ar      1 <0>        -0.4793
     13 C12        -2.4799   -4.3297    0.0135 C.2       1 <0>         0.0149
     14 C13        -1.3854   -5.1432    0.0101 C.2       1 <0>        -0.0773
     15 C14        -1.8614   -6.4604    0.0092 C.2       1 <0>        -0.2325
     16 C15        -3.2514   -6.4015    0.0103 C.2       1 <0>         0.0795
     17 N2         -3.6114   -5.1170    0.0204 N.pl3     1 <0>        -0.5112
     18 H1         -4.5243   -4.7891    0.0291 H         1 <0>         0.4199
     19 C16        -4.0824   -7.6590    0.0044 C.3       1 <0>        -0.0709
     20 C17        -3.2985   -8.7645   -0.7036 C.3       1 <0>         0.1238
     21 N3         -1.9142   -8.8516   -0.2597 N.am      1 <0>        -0.7359
     22 C18        -1.1628   -7.7577    0.0091 C.2       1 <0>         0.5975
     23 O1          0.0286   -7.8416    0.2384 O.2       1 <0>        -0.5323
     24 C19         3.6547    2.1697   -0.0216 C.2       1 <0>         0.5627
     25 O2          3.6387    3.3852   -0.0154 O.2       1 <0>        -0.5302
     26 N4          4.8307    1.5113   -0.0363 N.am      1 <0>        -0.6988
     27 C20         6.0896    2.2605   -0.0448 C.3       1 <0>         0.0770
     28 C21         7.1899    1.7822   -0.9943 C.3       1 <0>        -0.1919
     29 C22         7.3311    1.5619    0.5132 C.3       1 <0>        -0.1878
     30 H2         -0.9594    1.9176    0.0260 H         1 <0>         0.1447
     31 H3          1.1510    3.1756    0.0077 H         1 <0>         0.1420
     32 H4          3.3446   -0.5109   -0.0328 H         1 <0>         0.1302
     33 H5          1.2323   -1.7658   -0.0194 H         1 <0>         0.1356
     34 H6         -0.3055   -2.6839    0.0004 H         1 <0>         0.1445
     35 H7         -4.6029   -2.6179    0.0309 H         1 <0>         0.1300
     36 H8         -4.5012   -0.1624    0.0334 H         1 <0>         0.1631
     37 H9         -0.3512   -4.8318    0.0082 H         1 <0>         0.1533
     38 H10        -4.2949   -7.9612    1.0299 H         1 <0>         0.0969
     39 H11        -5.0170   -7.4767   -0.5259 H         1 <0>         0.0989
     40 H12        -3.7889   -9.7193   -0.5140 H         1 <0>         0.0948
     41 H13        -3.3118   -8.5725   -1.7765 H         1 <0>         0.0677
     42 H14        -1.5143   -9.7287   -0.1519 H         1 <0>         0.4042
     43 H15         4.8434    0.5414   -0.0413 H         1 <0>         0.4018
     44 H16         5.9989    3.3340    0.1209 H         1 <0>         0.1401
     45 H17         6.9771    0.9101   -1.6126 H         1 <0>         0.0979
     46 H18         7.8233    2.5411   -1.4535 H         1 <0>         0.1044
     47 H19         8.0575    2.1759    1.0457 H         1 <0>         0.1057
     48 H20         7.2113    0.5449    0.8866 H         1 <0>         0.0983
@<TRIPOS>BOND
     1    1    6 ar
     2    1    2 ar
     3    1   30 1
     4    2    3 ar
     5    2   31 1
     6    3    4 ar
     7    3   24 1
     8    4    5 ar
     9    4   32 1
    10    5    6 ar
    11    5   33 1
    12    6    7 1
    13    7   12 ar
    14    7    8 ar
    15    8    9 ar
    16    8   34 1
    17    9   10 ar
    18    9   13 1
    19   10   11 ar
    20   10   35 1
    21   11   12 ar
    22   11   36 1
    23   13   17 1
    24   13   14 2
    25   14   15 1
    26   14   37 1
    27   15   22 1
    28   15   16 2
    29   16   17 1
    30   16   19 1
    31   17   18 1
    32   19   20 1
    33   19   38 1
    34   19   39 1
    35   20   21 1
    36   20   40 1
    37   20   41 1
    38   21   22 am
    39   21   42 1
    40   22   23 2
    41   24   25 2
    42   24   26 am
    43   26   27 1
    44   26   43 1
    45   27   29 1
    46   27   28 1
    47   27   44 1
    48   28   29 1
    49   28   45 1
    50   28   46 1
    51   29   47 1
    52   29   48 1
@<TRIPOS>MOLECULE
CHEMBL603694
   50    54     0     0     0
SMALL
USER_CHARGES

@<TRIPOS>ATOM
      1 C1         -0.0167    1.3775    0.0096 C.ar      1 <0>        -0.0849
      2 C2          1.1673    2.0882    0.0021 C.ar      1 <0>        -0.1212
      3 C3          2.3859    1.4124   -0.0136 C.ar      1 <0>        -0.0205
      4 C4          2.4058    0.0202   -0.0212 C.ar      1 <0>        -0.1099
      5 C5          1.2128   -0.6861   -0.0131 C.ar      1 <0>         0.1710
      6 C6          0.0021   -0.0041    0.0020 C.ar      1 <0>        -0.1430
      7 N1          1.2278   -2.0868   -0.0207 N.pl3     1 <0>        -0.3134
      8 C7          0.1419   -2.8881   -0.0196 C.2       1 <0>         0.1019
      9 C8          0.5806   -4.1815   -0.0288 C.2       1 <0>        -0.2342
     10 C9          1.9960   -4.1496   -0.0356 C.2       1 <0>         0.3690
     11 N2          2.3716   -2.8936   -0.0369 N.2       1 <0>        -0.3466
     12 N3          2.8427   -5.2603   -0.0454 N.pl3     1 <0>        -0.8361
     13 C10        -0.2688   -5.3952   -0.0306 C.ar      1 <0>         0.0364
     14 C11        -1.3039   -5.5219    0.8973 C.ar      1 <0>        -0.1247
     15 C12        -2.0909   -6.6397    0.9012 C.ar      1 <0>        -0.0470
     16 C13        -1.8587   -7.6555   -0.0258 C.ar      1 <0>        -0.1453
     17 C14        -0.8233   -7.5333   -0.9595 C.ar      1 <0>        -0.0423
     18 C15        -0.0356   -6.4073   -0.9647 C.ar      1 <0>        -0.1241
     19 C16        -0.5941   -8.6420   -1.9520 C.3       1 <0>        -0.1038
     20 C17        -0.9177   -9.9893   -1.3102 C.3       1 <0>         0.1134
     21 N4         -2.2383   -9.9696   -0.6872 N.am      1 <0>        -0.7276
     22 C18        -2.6917   -8.8746   -0.0450 C.2       1 <0>         0.5652
     23 O1         -3.7725   -8.8907    0.5117 O.2       1 <0>        -0.5350
     24 C19         3.6592    2.1747   -0.0226 C.ar      1 <0>        -0.0324
     25 C20         4.8781    1.4990   -0.0440 C.ar      1 <0>        -0.1153
     26 C21         6.0610    2.2101   -0.0524 C.ar      1 <0>        -0.0995
     27 C22         6.0412    3.5924   -0.0391 C.ar      1 <0>        -0.1409
     28 C23         4.8317    4.2727   -0.0172 C.ar      1 <0>         0.1075
     29 C24         3.6395    3.5668   -0.0154 C.ar      1 <0>        -0.1335
     30 O2          4.8167    5.6316   -0.0033 O.3       1 <0>        -0.4982
     31 H1         -0.9600    1.9031    0.0259 H         1 <0>         0.1375
     32 H2          1.1488    3.1680    0.0081 H         1 <0>         0.1323
     33 H3          3.3477   -0.5079   -0.0337 H         1 <0>         0.1426
     34 H4         -0.9266   -0.5553    0.0079 H         1 <0>         0.1321
     35 H5         -0.8886   -2.5648   -0.0122 H         1 <0>         0.1824
     36 H6          2.4687   -6.1553   -0.0480 H         1 <0>         0.4117
     37 H7          3.8048   -5.1367   -0.0496 H         1 <0>         0.4070
     38 H8         -1.4833   -4.7347    1.6146 H         1 <0>         0.1304
     39 H9         -2.8905   -6.7361    1.6207 H         1 <0>         0.1369
     40 H10         0.7625   -6.3070   -1.6852 H         1 <0>         0.1299
     41 H11        -1.2368   -8.4903   -2.8191 H         1 <0>         0.0896
     42 H12         0.4485   -8.6336   -2.2698 H         1 <0>         0.0983
     43 H13        -0.8948  -10.7650   -2.0757 H         1 <0>         0.0909
     44 H14        -0.1676  -10.2138   -0.5519 H         1 <0>         0.0688
     45 H15        -2.7996  -10.7591   -0.7364 H         1 <0>         0.4059
     46 H16         4.8969    0.4192   -0.0538 H         1 <0>         0.1302
     47 H17         7.0048    1.6852   -0.0690 H         1 <0>         0.1313
     48 H18         6.9694    4.1443   -0.0453 H         1 <0>         0.1309
     49 H19         2.6975    4.0950   -0.0036 H         1 <0>         0.1337
     50 H20         4.8014    6.0339   -0.8825 H         1 <0>         0.3923
@<TRIPOS>BOND
     1    1    6 ar
     2    1    2 ar
     3    1   31 1
     4    2    3 ar
     5    2   32 1
     6    3    4 ar
     7    3   24 1
     8    4    5 ar
     9    4   33 1
    10    5    6 ar
    11    5    7 1
    12    6   34 1
    13    7   11 1
    14    7    8 1
    15    8    9 2
    16    8   35 1
    17    9   10 1
    18    9   13 1
    19   10   11 2
    20   10   12 1
    21   12   36 1
    22   12   37 1
    23   13   18 ar
    24   13   14 ar
    25   14   15 ar
    26   14   38 1
    27   15   16 ar
    28   15   39 1
    29   16   22 1
    30   16   17 ar
    31   17   18 ar
    32   17   19 1
    33   18   40 1
    34   19   20 1
    35   19   41 1
    36   19   42 1
    37   20   21 1
    38   20   43 1
    39   20   44 1
    40   21   22 am
    41   21   45 1
    42   22   23 2
    43   24   29 ar
    44   24   25 ar
    45   25   26 ar
    46   25   46 1
    47   26   27 ar
    48   26   47 1
    49   27   28 ar
    50   27   48 1
    51   28   29 ar
    52   28   30 1
    53   29   49 1
    54   30   50 1
@<TRIPOS>MOLECULE
CHEMBL600081
   40    44     0     0     0
SMALL
USER_CHARGES

@<TRIPOS>ATOM
      1 C1         -0.1678    0.7536    0.6476 C.ar      1 <0>        -0.1226
      2 C2          1.0034    1.4719    0.8492 C.ar      1 <0>        -0.0895
      3 C3          2.2210    0.8248    0.7708 C.ar      1 <0>        -0.0789
      4 C4          2.2569   -0.5248    0.4937 C.ar      1 <0>        -0.1124
      5 C5          1.0807   -1.2791    0.2845 C.ar      1 <0>        -0.0930
      6 C6         -0.1469   -0.5776    0.3736 C.ar      1 <0>        -0.0694
      7 C7          1.3021   -2.6867    0.0034 C.2       1 <0>        -0.0996
      8 C8          2.5727   -3.1575   -0.0365 C.2       1 <0>        -0.0682
      9 S1          3.5604   -1.7138    0.3068 S.3       1 <0>         0.0725
     10 C9          3.0294   -4.5368   -0.3004 C.2       1 <0>         0.1683
     11 C10         4.2519   -4.9245   -1.0144 C.ar      1 <0>        -0.1396
     12 C11         5.2863   -4.2086   -1.6213 C.ar      1 <0>        -0.0759
     13 C12         6.3230   -4.8925   -2.2265 C.ar      1 <0>         0.1332
     14 C13         6.3372   -6.2876   -2.2316 C.ar      1 <0>        -0.0531
     15 C14         5.3316   -6.9971   -1.6414 C.ar      1 <0>        -0.1214
     16 C15         4.2750   -6.3304   -1.0247 C.ar      1 <0>         0.1194
     17 N1          3.1474   -6.7533   -0.3643 N.pl3     1 <0>        -0.4979
     18 H1          2.8978   -7.6788   -0.2159 H         1 <0>         0.4450
     19 N2          2.4189   -5.6399    0.0658 N.2       1 <0>        -0.2197
     20 N3          7.3636   -4.1826   -2.8376 N.pl3     1 <0>        -0.6497
     21 C16         8.6626   -4.6613   -2.7696 C.ar      1 <0>         0.4692
     22 C17         9.6883   -4.0306   -3.4777 C.ar      1 <0>        -0.3369
     23 C18        10.9672   -4.5422   -3.3803 C.ar      1 <0>         0.2189
     24 N4         11.1830   -5.6086   -2.6237 N.ar      1 <0>        -0.6030
     25 C19        10.1911   -6.1868   -1.9629 C.ar      1 <0>         0.6008
     26 N5          8.9516   -5.7240   -2.0252 N.ar      1 <0>        -0.6145
     27 N6         10.4576   -7.2991   -1.1836 N.pl3     1 <0>        -0.8205
     28 H2         -1.1175    1.2635    0.7145 H         1 <0>         0.1296
     29 H3          0.9625    2.5292    1.0653 H         1 <0>         0.1363
     30 H4          3.1388    1.3727    0.9253 H         1 <0>         0.1334
     31 H5         -1.0764   -1.1064    0.2222 H         1 <0>         0.1277
     32 H6          0.4667   -3.3486   -0.1709 H         1 <0>         0.1431
     33 H7          5.2756   -3.1286   -1.6179 H         1 <0>         0.1322
     34 H8          7.1525   -6.8118   -2.7080 H         1 <0>         0.1406
     35 H9          5.3547   -8.0768   -1.6529 H         1 <0>         0.1327
     36 H10         7.1754   -3.3558   -3.3086 H         1 <0>         0.4230
     37 H11         9.4856   -3.1627   -4.0877 H         1 <0>         0.1422
     38 H12        11.7827   -4.0785   -3.9153 H         1 <0>         0.1685
     39 H13        11.3616   -7.6459   -1.1264 H         1 <0>         0.4158
     40 H14         9.7402   -7.7319   -0.6947 H         1 <0>         0.4133
@<TRIPOS>BOND
     1    1    6 ar
     2    1    2 ar
     3    1   28 1
     4    2    3 ar
     5    2   29 1
     6    3    4 ar
     7    3   30 1
     8    4    9 1
     9    4    5 ar
    10    5    6 ar
    11    5    7 1
    12    6   31 1
    13    7    8 2
    14    7   32 1
    15    8    9 1
    16    8   10 1
    17   10   19 2
    18   10   11 1
    19   11   16 ar
    20   11   12 ar
    21   12   13 ar
    22   12   33 1
    23   13   14 ar
    24   13   20 1
    25   14   15 ar
    26   14   34 1
    27   15   16 ar
    28   15   35 1
    29   16   17 1
    30   17   18 1
    31   17   19 1
    32   20   21 1
    33   20   36 1
    34   21   26 ar
    35   21   22 ar
    36   22   23 ar
    37   22   37 1
    38   23   24 ar
    39   23   38 1
    40   24   25 ar
    41   25   26 ar
    42   25   27 1
    43   27   39 1
    44   27   40 1
@<TRIPOS>MOLECULE
CHEMBL600081__1
   41    45     0     0     0
SMALL
USER_CHARGES

@<TRIPOS>ATOM
      1 C1         -0.1678    0.7536    0.6476 C.ar      1 <0>        -0.1203
      2 C2          1.0034    1.4719    0.8492 C.ar      1 <0>        -0.0817
      3 C3          2.2210    0.8248    0.7708 C.ar      1 <0>        -0.0817
      4 C4          2.2569   -0.5248    0.4937 C.ar      1 <0>        -0.1054
      5 C5          1.0807   -1.2791    0.2845 C.ar      1 <0>        -0.0992
      6 C6         -0.1469   -0.5776    0.3736 C.ar      1 <0>        -0.0649
      7 C7          1.3021   -2.6867    0.0034 C.2       1 <0>        -0.0814
      8 C8          2.5727   -3.1575   -0.0365 C.2       1 <0>        -0.0889
      9 S1          3.5604   -1.7138    0.3068 S.3       1 <0>         0.0621
     10 C9          3.0294   -4.5368   -0.3004 C.2       1 <0>         0.1833
     11 C10         4.2519   -4.9245   -1.0144 C.ar      1 <0>        -0.1464
     12 C11         5.2863   -4.2086   -1.6213 C.ar      1 <0>        -0.0359
     13 C12         6.3230   -4.8925   -2.2265 C.ar      1 <0>         0.0734
     14 C13         6.3372   -6.2876   -2.2316 C.ar      1 <0>        -0.0519
     15 C14         5.3316   -6.9971   -1.6414 C.ar      1 <0>        -0.1175
     16 C15         4.2750   -6.3304   -1.0247 C.ar      1 <0>         0.1401
     17 N1          3.1474   -6.7533   -0.3643 N.pl3     1 <0>        -0.4921
     18 H1          2.8978   -7.6788   -0.2159 H         1 <0>         0.4501
     19 N2          2.4189   -5.6399    0.0658 N.2       1 <0>        -0.2113
     20 N3          7.3636   -4.1826   -2.8376 N.pl3     1 <0>        -0.5899
     21 C16         8.6626   -4.6613   -2.7696 C.ar      1 <0>         0.5146
     22 C17         9.6883   -4.0306   -3.4777 C.ar      1 <0>        -0.2625
     23 C18        10.9672   -4.5422   -3.3803 C.ar      1 <0>         0.2144
     24 N4         11.1830   -5.6086   -2.6237 N.ar      1 <0>        -0.5745
     25 C19        10.1911   -6.1868   -1.9629 C.ar      1 <0>         0.6601
     26 N5          8.9516   -5.7240   -2.0252 N.ar      1 <0>        -0.5667
     27 N6         10.4576   -7.2991   -1.1836 N.pl3     1 <0>        -0.7924
     28 H2         -1.1175    1.2635    0.7145 H         1 <0>         0.1332
     29 H3          0.9625    2.5292    1.0653 H         1 <0>         0.1395
     30 H4          3.1388    1.3727    0.9253 H         1 <0>         0.1346
     31 H5         -1.0764   -1.1064    0.2222 H         1 <0>         0.1303
     32 H6          0.4667   -3.3486   -0.1709 H         1 <0>         0.1450
     33 H7          5.2756   -3.1286   -1.6179 H         1 <0>         0.1403
     34 H8          7.1525   -6.8118   -2.7080 H         1 <0>         0.1388
     35 H9          5.3547   -8.0768   -1.6529 H         1 <0>         0.1408
     36 H10         7.1754   -3.3558   -3.3086 H         1 <0>         0.4391
     37 H11         9.4856   -3.1627   -4.0877 H         1 <0>         0.1882
     38 H12        11.7827   -4.0785   -3.9153 H         1 <0>         0.2174
     39 H13        11.3616   -7.6459   -1.1264 H         1 <0>         0.4305
     40 H14         9.7402   -7.7319   -0.6947 H         1 <0>         0.4443
     41 H15        12.0800   -5.9711   -2.5530 H         1 <0>         0.4443
@<TRIPOS>BOND
     1    1    6 ar
     2    1    2 ar
     3    1   28 1
     4    2    3 ar
     5    2   29 1
     6    3    4 ar
     7    3   30 1
     8    4    9 1
     9    4    5 ar
    10    5    6 ar
    11    5    7 1
    12    6   31 1
    13    7    8 2
    14    7   32 1
    15    8    9 1
    16    8   10 1
    17   10   19 2
    18   10   11 1
    19   11   16 ar
    20   11   12 ar
    21   12   13 ar
    22   12   33 1
    23   13   14 ar
    24   13   20 1
    25   14   15 ar
    26   14   34 1
    27   15   16 ar
    28   15   35 1
    29   16   17 1
    30   17   18 1
    31   17   19 1
    32   20   21 1
    33   20   36 1
    34   21   26 ar
    35   21   22 ar
    36   22   23 ar
    37   22   37 1
    38   23   24 ar
    39   23   38 1
    40   24   25 ar
    41   24   41 1
    42   25   26 ar
    43   25   27 1
    44   27   39 1
    45   27   40 1
@<TRIPOS>MOLECULE
CHEMBL600081__2
   41    45     0     0     0
SMALL
USER_CHARGES

@<TRIPOS>ATOM
      1 C1          1.0382    2.2188    0.3419 C.ar      1 <0>        -0.1199
      2 C2          2.2617    2.8401    0.1283 C.ar      1 <0>        -0.0769
      3 C3          3.4042    2.0715    0.0147 C.ar      1 <0>        -0.0837
      4 C4          3.3133    0.7013    0.1149 C.ar      1 <0>        -0.1095
      5 C5          2.0813    0.0414    0.3322 C.ar      1 <0>        -0.1002
      6 C6          0.9341    0.8677    0.4427 C.ar      1 <0>        -0.0643
      7 C7          2.1544   -1.3626    0.4108 C.2       1 <0>        -0.0940
      8 C8          3.3566   -1.9870    0.2792 C.2       1 <0>        -0.1115
      9 S1          4.4866   -0.6283    0.0322 S.3       1 <0>         0.0836
     10 C9          3.6512   -3.4244    0.3284 C.2       1 <0>         0.1947
     11 C10         4.4782   -4.1316   -0.5515 C.ar      1 <0>        -0.1690
     12 C11         5.2471   -3.7869   -1.6762 C.ar      1 <0>        -0.0215
     13 C12         5.9606   -4.7528   -2.3252 C.ar      1 <0>         0.0773
     14 C13         5.9452   -6.0866   -1.8963 C.ar      1 <0>        -0.0900
     15 C14         5.2228   -6.4798   -0.8183 C.ar      1 <0>        -0.0637
     16 C15         4.4624   -5.5298   -0.1014 C.ar      1 <0>         0.1016
     17 N1          3.6758   -5.5886    0.9598 N.2       1 <0>        -0.2644
     18 H1          2.5788   -4.0947    1.9726 H         1 <0>         0.4511
     19 N2          3.1759   -4.3123    1.2398 N.pl3     1 <0>        -0.4051
     20 N3          6.7240   -4.4032   -3.4443 N.pl3     1 <0>        -0.5869
     21 C16         6.2896   -3.3970   -4.2927 C.ar      1 <0>         0.5091
     22 C17         7.0992   -2.9562   -5.3423 C.ar      1 <0>        -0.2619
     23 C18         6.6252   -1.9517   -6.1628 C.ar      1 <0>         0.2124
     24 N4          5.4251   -1.4387   -5.9326 N.ar      1 <0>        -0.5752
     25 C19         4.6786   -1.8758   -4.9293 C.ar      1 <0>         0.6601
     26 N5          5.0942   -2.8411   -4.1230 N.ar      1 <0>        -0.5656
     27 N6          3.4312   -1.3135   -4.7216 N.pl3     1 <0>        -0.7926
     28 H2          0.1487    2.8243    0.4345 H         1 <0>         0.1341
     29 H3          2.3197    3.9158    0.0512 H         1 <0>         0.1406
     30 H4          4.3619    2.5422   -0.1518 H         1 <0>         0.1346
     31 H5         -0.0336    0.4179    0.6090 H         1 <0>         0.1305
     32 H6          1.2585   -1.9428    0.5755 H         1 <0>         0.1405
     33 H7          5.2730   -2.7651   -2.0247 H         1 <0>         0.1386
     34 H8          6.5232   -6.8204   -2.4383 H         1 <0>         0.1402
     35 H9          5.2285   -7.5147   -0.5095 H         1 <0>         0.1467
     36 H10         7.5574   -4.8650   -3.6264 H         1 <0>         0.4389
     37 H11         8.0738   -3.3910   -5.5081 H         1 <0>         0.1877
     38 H12         7.2261   -1.5878   -6.9830 H         1 <0>         0.2167
     39 H13         3.1135   -0.6084   -5.3072 H         1 <0>         0.4298
     40 H14         2.8746   -1.6244   -3.9906 H         1 <0>         0.4434
     41 H15         5.0887   -0.7330   -6.5068 H         1 <0>         0.4434
@<TRIPOS>BOND
     1    1    6 ar
     2    1    2 ar
     3    1   28 1
     4    2    3 ar
     5    2   29 1
     6    3    4 ar
     7    3   30 1
     8    4    9 1
     9    4    5 ar
    10    5    6 ar
    11    5    7 1
    12    6   31 1
    13    7    8 2
    14    7   32 1
    15    8    9 1
    16    8   10 1
    17   10   11 2
    18   10   19 1
    19   11   12 ar
    20   11   16 ar
    21   12   13 ar
    22   12   33 1
    23   13   14 ar
    24   13   20 1
    25   14   15 ar
    26   14   34 1
    27   15   16 ar
    28   15   35 1
    29   16   17 2
    30   17   19 1
    31   18   19 1
    32   20   21 1
    33   20   36 1
    34   21   26 ar
    35   21   22 ar
    36   22   23 ar
    37   22   37 1
    38   23   24 ar
    39   23   38 1
    40   24   25 ar
    41   24   41 1
    42   25   26 ar
    43   25   27 1
    44   27   39 1
    45   27   40 1
@<TRIPOS>MOLECULE
CHEMBL600081__3
   40    44     0     0     0
SMALL
USER_CHARGES

@<TRIPOS>ATOM
      1 C1          1.0382    2.2188    0.3419 C.ar      1 <0>        -0.1222
      2 C2          2.2617    2.8401    0.1283 C.ar      1 <0>        -0.0860
      3 C3          3.4042    2.0715    0.0147 C.ar      1 <0>        -0.0789
      4 C4          3.3133    0.7013    0.1149 C.ar      1 <0>        -0.1140
      5 C5          2.0813    0.0414    0.3322 C.ar      1 <0>        -0.0927
      6 C6          0.9341    0.8677    0.4427 C.ar      1 <0>        -0.0697
      7 C7          2.1544   -1.3626    0.4108 C.2       1 <0>        -0.1116
      8 C8          3.3566   -1.9870    0.2792 C.2       1 <0>        -0.0906
      9 S1          4.4866   -0.6283    0.0322 S.3       1 <0>         0.0943
     10 C9          3.6512   -3.4244    0.3284 C.2       1 <0>         0.1694
     11 C10         4.4782   -4.1316   -0.5515 C.ar      1 <0>        -0.1474
     12 C11         5.2471   -3.7869   -1.6762 C.ar      1 <0>        -0.0521
     13 C12         5.9606   -4.7528   -2.3252 C.ar      1 <0>         0.1233
     14 C13         5.9452   -6.0866   -1.8963 C.ar      1 <0>        -0.0889
     15 C14         5.2228   -6.4798   -0.8183 C.ar      1 <0>        -0.0806
     16 C15         4.4624   -5.5298   -0.1014 C.ar      1 <0>         0.0924
     17 N1          3.6758   -5.5886    0.9598 N.2       1 <0>        -0.2763
     18 H1          2.5788   -4.0947    1.9726 H         1 <0>         0.4452
     19 N2          3.1759   -4.3123    1.2398 N.pl3     1 <0>        -0.4135
     20 N3          6.7240   -4.4032   -3.4443 N.pl3     1 <0>        -0.6480
     21 C16         6.2896   -3.3970   -4.2927 C.ar      1 <0>         0.4671
     22 C17         7.0992   -2.9562   -5.3423 C.ar      1 <0>        -0.3384
     23 C18         6.6252   -1.9517   -6.1628 C.ar      1 <0>         0.2177
     24 N4          5.4251   -1.4387   -5.9326 N.ar      1 <0>        -0.6038
     25 C19         4.6784   -1.8761   -4.9296 C.ar      1 <0>         0.6019
     26 N5          5.0942   -2.8411   -4.1230 N.ar      1 <0>        -0.6113
     27 N6          3.4308   -1.3141   -4.7222 N.pl3     1 <0>        -0.8199
     28 H2          0.1487    2.8243    0.4345 H         1 <0>         0.1298
     29 H3          2.3197    3.9158    0.0511 H         1 <0>         0.1370
     30 H4          4.3619    2.5422   -0.1518 H         1 <0>         0.1332
     31 H5         -0.0336    0.4179    0.6090 H         1 <0>         0.1269
     32 H6          1.2585   -1.9428    0.5755 H         1 <0>         0.1374
     33 H7          5.2730   -2.7651   -2.0247 H         1 <0>         0.1415
     34 H8          6.5232   -6.8204   -2.4383 H         1 <0>         0.1334
     35 H9          5.2285   -7.5147   -0.5095 H         1 <0>         0.1379
     36 H10         7.5574   -4.8650   -3.6264 H         1 <0>         0.4218
     37 H11         8.0738   -3.3910   -5.5081 H         1 <0>         0.1411
     38 H12         7.2261   -1.5878   -6.9830 H         1 <0>         0.1674
     39 H13         3.1131   -0.6090   -5.3077 H         1 <0>         0.4149
     40 H14         2.8742   -1.6252   -3.9913 H         1 <0>         0.4123
@<TRIPOS>BOND
     1    1    6 ar
     2    1    2 ar
     3    1   28 1
     4    2    3 ar
     5    2   29 1
     6    3    4 ar
     7    3   30 1
     8    4    9 1
     9    4    5 ar
    10    5    6 ar
    11    5    7 1
    12    6   31 1
    13    7    8 2
    14    7   32 1
    15    8    9 1
    16    8   10 1
    17   10   11 2
    18   10   19 1
    19   11   12 ar
    20   11   16 ar
    21   12   13 ar
    22   12   33 1
    23   13   14 ar
    24   13   20 1
    25   14   15 ar
    26   14   34 1
    27   15   16 ar
    28   15   35 1
    29   16   17 2
    30   17   19 1
    31   18   19 1
    32   20   21 1
    33   20   36 1
    34   21   26 ar
    35   21   22 ar
    36   22   23 ar
    37   22   37 1
    38   23   24 ar
    39   23   38 1
    40   24   25 ar
    41   25   26 ar
    42   25   27 1
    43   27   39 1
    44   27   40 1
@<TRIPOS>MOLECULE
CHEMBL599682
   53    57     0     0     0
SMALL
USER_CHARGES

@<TRIPOS>ATOM
      1 C1         -0.0173    1.4248    0.0099 C.3       1 <0>         0.0265
      2 O1          0.0021   -0.0041    0.0020 O.3       1 <0>        -0.3170
      3 C2          0.6058   -0.6071   -1.0557 C.ar      1 <0>         0.1293
      4 C3          1.1730    0.1624   -2.0625 C.ar      1 <0>        -0.2041
      5 C4          1.7884   -0.4467   -3.1397 C.ar      1 <0>        -0.0764
      6 C5          1.8424   -1.8240   -3.2206 C.ar      1 <0>        -0.1432
      7 C6          1.2755   -2.6035   -2.2144 C.ar      1 <0>        -0.0099
      8 C7          0.6602   -1.9893   -1.1264 C.ar      1 <0>        -0.1404
      9 C8          1.3318   -4.0840   -2.2992 C.ar      1 <0>        -0.0207
     10 C9          0.7596   -4.8638   -1.2954 C.ar      1 <0>        -0.1186
     11 C10         0.8124   -6.2409   -1.3760 C.ar      1 <0>        -0.0860
     12 C11         1.4321   -6.8511   -2.4502 C.ar      1 <0>        -0.1418
     13 C12         2.0054   -6.0818   -3.4549 C.ar      1 <0>         0.1692
     14 C13         1.9512   -4.6978   -3.3843 C.ar      1 <0>        -0.1075
     15 N1          2.6330   -6.7038   -4.5418 N.pl3     1 <0>        -0.3129
     16 C14         2.6621   -8.0313   -4.7830 C.2       1 <0>         0.1021
     17 C15         3.3693   -8.2285   -5.9347 C.2       1 <0>        -0.2350
     18 C16         3.7816   -6.9574   -6.4025 C.2       1 <0>         0.3686
     19 N2          3.3317   -6.0538   -5.5660 N.2       1 <0>        -0.3462
     20 N3          4.5305   -6.7095   -7.5550 N.pl3     1 <0>        -0.8363
     21 C17         3.6532   -9.5331   -6.5764 C.ar      1 <0>         0.0369
     22 C18         4.1731  -10.5835   -5.8181 C.ar      1 <0>        -0.1248
     23 C19         4.4378  -11.7897   -6.4045 C.ar      1 <0>        -0.0470
     24 C20         4.1866  -11.9706   -7.7643 C.ar      1 <0>        -0.1455
     25 C21         3.6641  -10.9216   -8.5294 C.ar      1 <0>        -0.0423
     26 C22         3.3947   -9.7109   -7.9375 C.ar      1 <0>        -0.1242
     27 C23         3.3987  -11.1420   -9.9949 C.3       1 <0>        -0.1038
     28 C24         4.4437  -12.0923  -10.5752 C.3       1 <0>         0.1135
     29 N4          4.5545  -13.3050   -9.7694 N.am      1 <0>        -0.7276
     30 C25         4.4635  -13.2617   -8.4252 C.2       1 <0>         0.5652
     31 O2          4.6076  -14.2728   -7.7654 O.2       1 <0>        -0.5351
     32 H1          1.0053    1.8021    0.0021 H         1 <0>         0.0565
     33 H2         -0.5445    1.7859   -0.8732 H         1 <0>         0.0565
     34 H3         -0.5275    1.7763    0.9067 H         1 <0>         0.1020
     35 H4          1.1330    1.2401   -2.0038 H         1 <0>         0.1299
     36 H5          2.2279    0.1563   -3.9205 H         1 <0>         0.1290
     37 H6          2.3236   -2.2970   -4.0638 H         1 <0>         0.1289
     38 H7          0.2233   -2.5891   -0.3417 H         1 <0>         0.1355
     39 H8          0.2752   -4.3904   -0.4542 H         1 <0>         0.1338
     40 H9          0.3684   -6.8432   -0.5972 H         1 <0>         0.1376
     41 H10         1.4711   -7.9288   -2.5084 H         1 <0>         0.1319
     42 H11         2.3923   -4.0979   -4.1666 H         1 <0>         0.1428
     43 H12         2.2081   -8.7995   -4.1746 H         1 <0>         0.1823
     44 H13         4.8156   -7.4475   -8.1162 H         1 <0>         0.4115
     45 H14         4.7654   -5.7993   -7.7943 H         1 <0>         0.4069
     46 H15         4.3670  -10.4427   -4.7650 H         1 <0>         0.1304
     47 H16         4.8404  -12.6008   -5.8159 H         1 <0>         0.1368
     48 H17         2.9885   -8.8994   -8.5230 H         1 <0>         0.1299
     49 H18         2.4061  -11.5741  -10.1221 H         1 <0>         0.0896
     50 H19         3.4466  -10.1875  -10.5191 H         1 <0>         0.0983
     51 H20         4.1564  -12.3628  -11.5912 H         1 <0>         0.0908
     52 H21         5.4104  -11.5893  -10.5996 H         1 <0>         0.0687
     53 H22         4.6963  -14.1577  -10.2096 H         1 <0>         0.4058
@<TRIPOS>BOND
     1    1    2 1
     2    1   32 1
     3    1   33 1
     4    1   34 1
     5    2    3 1
     6    3    8 ar
     7    3    4 ar
     8    4    5 ar
     9    4   35 1
    10    5    6 ar
    11    5   36 1
    12    6    7 ar
    13    6   37 1
    14    7    8 ar
    15    7    9 1
    16    8   38 1
    17    9   14 ar
    18    9   10 ar
    19   10   11 ar
    20   10   39 1
    21   11   12 ar
    22   11   40 1
    23   12   13 ar
    24   12   41 1
    25   13   14 ar
    26   13   15 1
    27   14   42 1
    28   15   19 1
    29   15   16 1
    30   16   17 2
    31   16   43 1
    32   17   18 1
    33   17   21 1
    34   18   19 2
    35   18   20 1
    36   20   44 1
    37   20   45 1
    38   21   26 ar
    39   21   22 ar
    40   22   23 ar
    41   22   46 1
    42   23   24 ar
    43   23   47 1
    44   24   30 1
    45   24   25 ar
    46   25   26 ar
    47   25   27 1
    48   26   48 1
    49   27   28 1
    50   27   49 1
    51   27   50 1
    52   28   29 1
    53   28   51 1
    54   28   52 1
    55   29   30 am
    56   29   53 1
    57   30   31 2
@<TRIPOS>MOLECULE
CHEMBL1208951
   58    62     0     0     0
SMALL
USER_CHARGES

@<TRIPOS>ATOM
      1 C1          1.2240    1.0419    0.0840 C.3       1 <0>        -0.0481
      2 N1          0.6569   -0.3066   -0.0496 N.4       1 <0>        -0.3850
      3 C2         -0.6977   -0.3243    0.5169 C.3       1 <0>        -0.0233
      4 C3         -1.3332   -1.6976    0.2758 C.3       1 <0>         0.0953
      5 N2         -0.4348   -2.7288    0.8178 N.pl3     1 <0>        -0.6418
      6 C4          0.9832   -2.6869    0.4287 C.3       1 <0>         0.0966
      7 C5          1.5094   -1.2670    0.6626 C.3       1 <0>        -0.0226
      8 C6         -0.9156   -3.7212    1.6795 C.ar      1 <0>         0.2122
      9 C7         -2.2252   -3.6672    2.1387 C.ar      1 <0>        -0.1616
     10 C8         -2.6995   -4.6463    2.9888 C.ar      1 <0>        -0.0691
     11 C9         -1.8671   -5.6853    3.3844 C.ar      1 <0>         0.0694
     12 C10        -0.5576   -5.7395    2.9248 C.ar      1 <0>        -0.0866
     13 C11        -0.0848   -4.7630    2.0708 C.ar      1 <0>        -0.1634
     14 N3         -2.3479   -6.6778    4.2468 N.pl3     1 <0>        -0.6156
     15 C12        -1.5353   -7.1733    5.2549 C.ar      1 <0>         0.3454
     16 C13        -0.3035   -6.5983    5.5283 C.ar      1 <0>        -0.2679
     17 C14         0.4866   -7.1176    6.5440 C.ar      1 <0>         0.2294
     18 N4          0.1032   -8.1468    7.2635 N.ar      1 <0>        -0.5001
     19 C15        -1.0716   -8.7520    7.0560 C.ar      1 <0>         0.1637
     20 C16        -1.9396   -8.2791    6.0422 C.ar      1 <0>        -0.1147
     21 C17        -3.1712   -8.9094    5.8300 C.ar      1 <0>        -0.0706
     22 C18        -3.5288   -9.9872    6.6208 C.ar      1 <0>        -0.0088
     23 C19        -2.6661  -10.4462    7.6280 C.ar      1 <0>        -0.0292
     24 C20        -1.4617   -9.8540    7.8386 C.ar      1 <0>        -0.1319
     25 C21        -4.8322  -10.6612    6.4028 C.ar      1 <0>        -0.0764
     26 C22        -5.6916  -10.2141    5.4009 C.ar      1 <0>        -0.0892
     27 C23        -6.9027  -10.8447    5.2018 C.ar      1 <0>        -0.1066
     28 C24        -7.2646  -11.9199    5.9954 C.ar      1 <0>        -0.0162
     29 C25        -6.4144  -12.3678    6.9920 C.ar      1 <0>        -0.1036
     30 C26        -5.1988  -11.7473    7.1955 C.ar      1 <0>        -0.0835
     31 Cl1        -8.7899  -12.7086    5.7403 Cl        1 <0>        -0.0444
     32 H1          2.2266    1.0584   -0.3433 H         1 <0>         0.1277
     33 H2          0.5921    1.7558   -0.4442 H         1 <0>         0.1279
     34 H3          1.2742    1.3120    1.1388 H         1 <0>         0.1226
     35 H4         -0.6461   -0.1308    1.5883 H         1 <0>         0.1332
     36 H5         -1.3023    0.4453    0.0371 H         1 <0>         0.1451
     37 H6         -2.2972   -1.7490    0.7817 H         1 <0>         0.1278
     38 H7         -1.4688   -1.8556   -0.7942 H         1 <0>         0.0946
     39 H8          1.5506   -3.3924    1.0357 H         1 <0>         0.1266
     40 H9          1.0815   -2.9449   -0.6258 H         1 <0>         0.0938
     41 H10         2.5310   -1.1920    0.2902 H         1 <0>         0.1446
     42 H11         1.4942   -1.0449    1.7296 H         1 <0>         0.1328
     43 H12        -2.8724   -2.8592    1.8311 H         1 <0>         0.1379
     44 H13        -3.7176   -4.6039    3.3465 H         1 <0>         0.1398
     45 H14         0.0898   -6.5472    3.2327 H         1 <0>         0.1398
     46 H15         0.9323   -4.8072    1.7104 H         1 <0>         0.1377
     47 H16        -3.2495   -7.0189    4.1390 H         1 <0>         0.4269
     48 H17         0.0395   -5.7508    4.9533 H         1 <0>         0.1813
     49 H18         1.4445   -6.6623    6.7483 H         1 <0>         0.2064
     50 H19        -3.8370   -8.5573    5.0559 H         1 <0>         0.1468
     51 H20        -2.9594  -11.2881    8.2376 H         1 <0>         0.1592
     52 H21        -0.8095  -10.2203    8.6176 H         1 <0>         0.1621
     53 H22        -5.4103   -9.3752    4.7815 H         1 <0>         0.1311
     54 H23        -7.5695  -10.4988    4.4259 H         1 <0>         0.1434
     55 H24        -6.7014  -13.2067    7.6086 H         1 <0>         0.1461
     56 H25        -4.5345  -12.1001    7.9705 H         1 <0>         0.1400
     57 H26         0.6874   -8.4772    7.9639 H         1 <0>         0.4462
     58 H27         0.6137   -0.5568   -1.0261 H         1 <0>         0.4268
@<TRIPOS>BOND
     1    1    2 1
     2    1   32 1
     3    1   33 1
     4    1   34 1
     5    2    7 1
     6    2    3 1
     7    2   58 1
     8    3    4 1
     9    3   35 1
    10    3   36 1
    11    4    5 1
    12    4   37 1
    13    4   38 1
    14    5    6 1
    15    5    8 1
    16    6    7 1
    17    6   39 1
    18    6   40 1
    19    7   41 1
    20    7   42 1
    21    8   13 ar
    22    8    9 ar
    23    9   10 ar
    24    9   43 1
    25   10   11 ar
    26   10   44 1
    27   11   12 ar
    28   11   14 1
    29   12   13 ar
    30   12   45 1
    31   13   46 1
    32   14   15 1
    33   14   47 1
    34   15   20 ar
    35   15   16 ar
    36   16   17 ar
    37   16   48 1
    38   17   18 ar
    39   17   49 1
    40   18   19 ar
    41   18   57 1
    42   19   24 ar
    43   19   20 ar
    44   20   21 ar
    45   21   22 ar
    46   21   50 1
    47   22   23 ar
    48   22   25 1
    49   23   24 ar
    50   23   51 1
    51   24   52 1
    52   25   30 ar
    53   25   26 ar
    54   26   27 ar
    55   26   53 1
    56   27   28 ar
    57   27   54 1
    58   28   29 ar
    59   28   31 1
    60   29   30 ar
    61   29   55 1
    62   30   56 1
@<TRIPOS>MOLECULE
CHEMBL1208951__1
   57    61     0     0     0
SMALL
USER_CHARGES

@<TRIPOS>ATOM
      1 C1          1.2204    1.0676    0.1088 C.3       1 <0>         0.0233
      2 N1          0.6832   -0.2924   -0.0314 N.3       1 <0>        -0.5428
      3 C2         -0.7003   -0.3649    0.4573 C.3       1 <0>         0.0375
      4 C3         -1.2827   -1.7438    0.1294 C.3       1 <0>         0.1195
      5 N2         -0.3788   -2.7724    0.6662 N.pl3     1 <0>        -0.6198
      6 C4          1.0506   -2.6863    0.3308 C.3       1 <0>         0.1208
      7 C5          1.5412   -1.2703    0.6508 C.3       1 <0>         0.0382
      8 C6         -0.8659   -3.8055    1.4749 C.ar      1 <0>         0.2399
      9 C7         -2.1908   -3.7953    1.8915 C.ar      1 <0>        -0.1792
     10 C8         -2.6714   -4.8145    2.6894 C.ar      1 <0>        -0.0606
     11 C9         -1.8300   -5.8501    3.0750 C.ar      1 <0>         0.0274
     12 C10        -0.5053   -5.8604    2.6580 C.ar      1 <0>        -0.0778
     13 C11        -0.0260   -4.8437    1.8561 C.ar      1 <0>        -0.1811
     14 N3         -2.3172   -6.8832    3.8844 N.pl3     1 <0>        -0.5983
     15 C12        -1.5276   -7.3986    4.9008 C.ar      1 <0>         0.3434
     16 C13        -0.3182   -6.8089    5.2359 C.ar      1 <0>        -0.2644
     17 C14         0.4492   -7.3488    6.2582 C.ar      1 <0>         0.2249
     18 N4          0.0648   -8.4114    6.9269 N.ar      1 <0>        -0.5092
     19 C15        -1.0892   -9.0326    6.6584 C.ar      1 <0>         0.1682
     20 C16        -1.9335   -8.5406    5.6336 C.ar      1 <0>        -0.1182
     21 C17        -3.1435   -9.1878    5.3576 C.ar      1 <0>        -0.0640
     22 C18        -3.5034  -10.3010    6.0966 C.ar      1 <0>        -0.0200
     23 C19        -2.6644  -10.7789    7.1151 C.ar      1 <0>        -0.0315
     24 C20        -1.4808  -10.1703    7.3873 C.ar      1 <0>        -0.1359
     25 C21        -4.7840  -10.9931    5.8109 C.ar      1 <0>        -0.0694
     26 C22        -5.6196  -10.5272    4.7974 C.ar      1 <0>        -0.0906
     27 C23        -6.8095  -11.1748    4.5352 C.ar      1 <0>        -0.1055
     28 C24        -7.1738  -12.2856    5.2769 C.ar      1 <0>        -0.0194
     29 C25        -6.3473  -12.7523    6.2847 C.ar      1 <0>        -0.1044
     30 C26        -5.1528  -12.1149    6.5512 C.ar      1 <0>        -0.0867
     31 Cl1        -8.6725  -13.0955    4.9425 Cl        1 <0>        -0.0493
     32 H1          2.2174    1.1114   -0.3298 H         1 <0>         0.0738
     33 H2          0.5661    1.7716   -0.4054 H         1 <0>         0.0736
     34 H3          1.2765    1.3290    1.1655 H         1 <0>         0.0277
     35 H4         -0.7133   -0.2118    1.5364 H         1 <0>         0.0395
     36 H5         -1.2981    0.4071   -0.0272 H         1 <0>         0.0912
     37 H6         -2.2660   -1.8446    0.5888 H         1 <0>         0.0892
     38 H7         -1.3669   -1.8581   -0.9513 H         1 <0>         0.0793
     39 H8          1.6100   -3.4103    0.9234 H         1 <0>         0.0879
     40 H9          1.1907   -2.8913   -0.7305 H         1 <0>         0.0785
     41 H10         2.5690   -1.1550    0.3066 H         1 <0>         0.0909
     42 H11         1.4970   -1.1046    1.7272 H         1 <0>         0.0391
     43 H12        -2.8450   -2.9900    1.5916 H         1 <0>         0.1373
     44 H13        -3.7014   -4.8062    3.0139 H         1 <0>         0.1325
     45 H14         0.1491   -6.6655    2.9581 H         1 <0>         0.1327
     46 H15         1.0031   -4.8537    1.5287 H         1 <0>         0.1369
     47 H16        -3.2072   -7.2385    3.7341 H         1 <0>         0.4233
     48 H17         0.0250   -5.9341    4.7036 H         1 <0>         0.1841
     49 H18         1.3897   -6.8819    6.5108 H         1 <0>         0.2046
     50 H19        -3.7909   -8.8213    4.5748 H         1 <0>         0.1461
     51 H20        -2.9592  -11.6485    7.6838 H         1 <0>         0.1559
     52 H21        -0.8467  -10.5515    8.1740 H         1 <0>         0.1591
     53 H22        -5.3364   -9.6606    4.2185 H         1 <0>         0.1325
     54 H23        -7.4578  -10.8143    3.7502 H         1 <0>         0.1428
     55 H24        -6.6361  -13.6190    6.8608 H         1 <0>         0.1441
     56 H25        -4.5068  -12.4822    7.3349 H         1 <0>         0.1391
     57 H26         0.6327   -8.7553    7.6342 H         1 <0>         0.4433
@<TRIPOS>BOND
     1    1    2 1
     2    1   32 1
     3    1   33 1
     4    1   34 1
     5    2    7 1
     6    2    3 1
     7    3    4 1
     8    3   35 1
     9    3   36 1
    10    4    5 1
    11    4   37 1
    12    4   38 1
    13    5    6 1
    14    5    8 1
    15    6    7 1
    16    6   39 1
    17    6   40 1
    18    7   41 1
    19    7   42 1
    20    8   13 ar
    21    8    9 ar
    22    9   10 ar
    23    9   43 1
    24   10   11 ar
    25   10   44 1
    26   11   12 ar
    27   11   14 1
    28   12   13 ar
    29   12   45 1
    30   13   46 1
    31   14   15 1
    32   14   47 1
    33   15   20 ar
    34   15   16 ar
    35   16   17 ar
    36   16   48 1
    37   17   18 ar
    38   17   49 1
    39   18   19 ar
    40   18   57 1
    41   19   24 ar
    42   19   20 ar
    43   20   21 ar
    44   21   22 ar
    45   21   50 1
    46   22   23 ar
    47   22   25 1
    48   23   24 ar
    49   23   51 1
    50   24   52 1
    51   25   30 ar
    52   25   26 ar
    53   26   27 ar
    54   26   53 1
    55   27   28 ar
    56   27   54 1
    57   28   29 ar
    58   28   31 1
    59   29   30 ar
    60   29   55 1
    61   30   56 1
@<TRIPOS>MOLECULE
CHEMBL1208950
   58    62     0     0     0
SMALL
USER_CHARGES

@<TRIPOS>ATOM
      1 C1          1.2238    1.0421    0.0844 C.3       1 <0>        -0.0482
      2 N1          0.6567   -0.3064   -0.0493 N.4       1 <0>        -0.3849
      3 C2         -0.6979   -0.3242    0.5171 C.3       1 <0>        -0.0233
      4 C3         -1.3333   -1.6974    0.2759 C.3       1 <0>         0.0953
      5 N2         -0.4349   -2.7286    0.8179 N.pl3     1 <0>        -0.6418
      6 C4          0.9832   -2.6867    0.4289 C.3       1 <0>         0.0966
      7 C5          1.5092   -1.2667    0.6628 C.3       1 <0>        -0.0227
      8 C6         -0.9156   -3.7210    1.6796 C.ar      1 <0>         0.2124
      9 C7         -2.2252   -3.6671    2.1388 C.ar      1 <0>        -0.1616
     10 C8         -2.6995   -4.6462    2.9889 C.ar      1 <0>        -0.0689
     11 C9         -1.8671   -5.6853    3.3844 C.ar      1 <0>         0.0691
     12 C10        -0.5576   -5.7394    2.9248 C.ar      1 <0>        -0.0865
     13 C11        -0.0848   -4.7629    2.0709 C.ar      1 <0>        -0.1634
     14 N3         -2.3479   -6.6778    4.2468 N.pl3     1 <0>        -0.6154
     15 C12        -1.5353   -7.1733    5.2549 C.ar      1 <0>         0.3456
     16 C13        -0.3035   -6.5983    5.5283 C.ar      1 <0>        -0.2679
     17 C14         0.4866   -7.1176    6.5440 C.ar      1 <0>         0.2298
     18 N4          0.1034   -8.1470    7.2633 N.ar      1 <0>        -0.5004
     19 C15        -1.0714   -8.7523    7.0557 C.ar      1 <0>         0.1648
     20 C16        -1.9396   -8.2791    6.0422 C.ar      1 <0>        -0.1154
     21 C17        -3.1712   -8.9094    5.8299 C.ar      1 <0>        -0.0686
     22 C18        -3.5288   -9.9873    6.6207 C.ar      1 <0>        -0.0115
     23 C19        -2.6660  -10.4463    7.6279 C.ar      1 <0>        -0.0282
     24 C20        -1.4613   -9.8546    7.8379 C.ar      1 <0>        -0.1322
     25 C21        -4.8321  -10.6613    6.4027 C.ar      1 <0>        -0.0647
     26 C22        -5.6916  -10.2143    5.4008 C.ar      1 <0>        -0.0964
     27 C23        -6.9026  -10.8450    5.2018 C.ar      1 <0>        -0.0868
     28 C24        -7.2646  -11.9198    5.9955 C.ar      1 <0>        -0.0735
     29 C25        -6.4146  -12.3677    6.9919 C.ar      1 <0>        -0.0839
     30 C26        -5.1988  -11.7475    7.1953 C.ar      1 <0>        -0.0907
     31 Br1        -8.9263  -12.7786    5.7180 Br        1 <0>        -0.0238
     32 H1          2.2264    1.0587   -0.3430 H         1 <0>         0.1277
     33 H2          0.5918    1.7560   -0.4439 H         1 <0>         0.1279
     34 H3          1.2739    1.3123    1.1392 H         1 <0>         0.1226
     35 H4         -0.6463   -0.1307    1.5886 H         1 <0>         0.1332
     36 H5         -1.3026    0.4454    0.0373 H         1 <0>         0.1451
     37 H6         -2.2974   -1.7489    0.7818 H         1 <0>         0.1278
     38 H7         -1.4689   -1.8554   -0.7940 H         1 <0>         0.0946
     39 H8          1.5505   -3.3921    1.0359 H         1 <0>         0.1266
     40 H9          1.0814   -2.9446   -0.6256 H         1 <0>         0.0938
     41 H10         2.5309   -1.1916    0.2904 H         1 <0>         0.1446
     42 H11         1.4940   -1.0447    1.7299 H         1 <0>         0.1328
     43 H12        -2.8725   -2.8592    1.8312 H         1 <0>         0.1379
     44 H13        -3.7177   -4.6039    3.3465 H         1 <0>         0.1398
     45 H14         0.0897   -6.5473    3.2324 H         1 <0>         0.1398
     46 H15         0.9323   -4.8070    1.7105 H         1 <0>         0.1377
     47 H16        -3.2495   -7.0189    4.1389 H         1 <0>         0.4270
     48 H17         0.0395   -5.7508    4.9533 H         1 <0>         0.1814
     49 H18         1.4443   -6.6621    6.7485 H         1 <0>         0.2065
     50 H19        -3.8369   -8.5574    5.0558 H         1 <0>         0.1471
     51 H20        -2.9593  -11.2882    8.2375 H         1 <0>         0.1594
     52 H21        -0.8090  -10.2209    8.6169 H         1 <0>         0.1623
     53 H22        -5.4104   -9.3754    4.7814 H         1 <0>         0.1307
     54 H23        -7.5694  -10.4994    4.4256 H         1 <0>         0.1425
     55 H24        -6.7018  -13.2064    7.6087 H         1 <0>         0.1453
     56 H25        -4.5345  -12.1003    7.9703 H         1 <0>         0.1397
     57 H26         0.6877   -8.4776    7.9634 H         1 <0>         0.4463
     58 H27         0.6136   -0.5565   -1.0259 H         1 <0>         0.4268
@<TRIPOS>BOND
     1    1    2 1
     2    1   32 1
     3    1   33 1
     4    1   34 1
     5    2    7 1
     6    2    3 1
     7    2   58 1
     8    3    4 1
     9    3   35 1
    10    3   36 1
    11    4    5 1
    12    4   37 1
    13    4   38 1
    14    5    6 1
    15    5    8 1
    16    6    7 1
    17    6   39 1
    18    6   40 1
    19    7   41 1
    20    7   42 1
    21    8   13 ar
    22    8    9 ar
    23    9   10 ar
    24    9   43 1
    25   10   11 ar
    26   10   44 1
    27   11   12 ar
    28   11   14 1
    29   12   13 ar
    30   12   45 1
    31   13   46 1
    32   14   15 1
    33   14   47 1
    34   15   20 ar
    35   15   16 ar
    36   16   17 ar
    37   16   48 1
    38   17   18 ar
    39   17   49 1
    40   18   19 ar
    41   18   57 1
    42   19   24 ar
    43   19   20 ar
    44   20   21 ar
    45   21   22 ar
    46   21   50 1
    47   22   23 ar
    48   22   25 1
    49   23   24 ar
    50   23   51 1
    51   24   52 1
    52   25   30 ar
    53   25   26 ar
    54   26   27 ar
    55   26   53 1
    56   27   28 ar
    57   27   54 1
    58   28   29 ar
    59   28   31 1
    60   29   30 ar
    61   29   55 1
    62   30   56 1
@<TRIPOS>MOLECULE
CHEMBL1208950__1
   57    61     0     0     0
SMALL
USER_CHARGES

@<TRIPOS>ATOM
      1 C1          1.2197    1.0681    0.1084 C.3       1 <0>         0.0232
      2 N1          0.6826   -0.2920   -0.0317 N.3       1 <0>        -0.5428
      3 C2         -0.7007   -0.3647    0.4576 C.3       1 <0>         0.0375
      4 C3         -1.2830   -1.7437    0.1298 C.3       1 <0>         0.1194
      5 N2         -0.3788   -2.7723    0.6662 N.pl3     1 <0>        -0.6197
      6 C4          1.0506   -2.6859    0.3303 C.3       1 <0>         0.1208
      7 C5          1.5411   -1.2698    0.6501 C.3       1 <0>         0.0382
      8 C6         -0.8655   -3.8059    1.4743 C.ar      1 <0>         0.2401
      9 C7         -2.1905   -3.7967    1.8905 C.ar      1 <0>        -0.1793
     10 C8         -2.6707   -4.8165    2.6878 C.ar      1 <0>        -0.0604
     11 C9         -1.8289   -5.8518    3.0732 C.ar      1 <0>         0.0271
     12 C10        -0.5040   -5.8612    2.6566 C.ar      1 <0>        -0.0777
     13 C11        -0.0251   -4.8439    1.8553 C.ar      1 <0>        -0.1812
     14 N3         -2.3157   -6.8856    3.8820 N.pl3     1 <0>        -0.5980
     15 C12        -1.5262   -7.4009    4.8984 C.ar      1 <0>         0.3436
     16 C13        -0.3172   -6.8107    5.2341 C.ar      1 <0>        -0.2643
     17 C14         0.4502   -7.3507    6.2565 C.ar      1 <0>         0.2251
     18 N4          0.0664   -8.4140    6.9243 N.ar      1 <0>        -0.5093
     19 C15        -1.0871   -9.0357    6.6552 C.ar      1 <0>         0.1692
     20 C16        -1.9316   -8.5435    5.6307 C.ar      1 <0>        -0.1189
     21 C17        -3.1411   -9.1913    5.3540 C.ar      1 <0>        -0.0621
     22 C18        -3.5006  -10.3051    6.0924 C.ar      1 <0>        -0.0228
     23 C19        -2.6617  -10.7829    7.1109 C.ar      1 <0>        -0.0304
     24 C20        -1.4780  -10.1742    7.3831 C.ar      1 <0>        -0.1363
     25 C21        -4.7807  -10.9978    5.8059 C.ar      1 <0>        -0.0575
     26 C22        -5.6163  -10.5320    4.7924 C.ar      1 <0>        -0.0978
     27 C23        -6.8057  -11.1802    4.5296 C.ar      1 <0>        -0.0857
     28 C24        -7.1697  -12.2911    5.2709 C.ar      1 <0>        -0.0767
     29 C25        -6.3435  -12.7577    6.2786 C.ar      1 <0>        -0.0846
     30 C26        -5.1492  -12.1201    6.5456 C.ar      1 <0>        -0.0939
     31 Br1        -8.8018  -13.1738    4.9062 Br        1 <0>        -0.0290
     32 H1          2.2164    1.1121   -0.3306 H         1 <0>         0.0738
     33 H2          0.5650    1.7720   -0.4055 H         1 <0>         0.0736
     34 H3          1.2761    1.3294    1.1651 H         1 <0>         0.0278
     35 H4         -0.7133   -0.2117    1.5367 H         1 <0>         0.0396
     36 H5         -1.2988    0.4072   -0.0267 H         1 <0>         0.0913
     37 H6         -2.2661   -1.8447    0.5896 H         1 <0>         0.0892
     38 H7         -1.3676   -1.8581   -0.9508 H         1 <0>         0.0794
     39 H8          1.6103   -3.4098    0.9226 H         1 <0>         0.0880
     40 H9          1.1903   -2.8908   -0.7311 H         1 <0>         0.0785
     41 H10         2.5687   -1.1543    0.3055 H         1 <0>         0.0909
     42 H11         1.4972   -1.1042    1.7266 H         1 <0>         0.0391
     43 H12        -2.8450   -2.9917    1.5908 H         1 <0>         0.1374
     44 H13        -3.7009   -4.8090    3.0120 H         1 <0>         0.1326
     45 H14         0.1506   -6.6662    2.9563 H         1 <0>         0.1327
     46 H15         1.0041   -4.8531    1.5283 H         1 <0>         0.1369
     47 H16        -3.2055   -7.2413    3.7313 H         1 <0>         0.4233
     48 H17         0.0257   -5.9355    4.7024 H         1 <0>         0.1842
     49 H18         1.3902   -6.8831    6.5098 H         1 <0>         0.2047
     50 H19        -3.7886   -8.8248    4.5711 H         1 <0>         0.1464
     51 H20        -2.9561  -11.6529    7.6791 H         1 <0>         0.1561
     52 H21        -0.8439  -10.5554    8.1699 H         1 <0>         0.1593
     53 H22        -5.3335   -9.6649    4.2139 H         1 <0>         0.1322
     54 H23        -7.4539  -10.8201    3.7444 H         1 <0>         0.1420
     55 H24        -6.6322  -13.6246    6.8544 H         1 <0>         0.1432
     56 H25        -4.5032  -12.4874    7.3293 H         1 <0>         0.1388
     57 H26         0.6344   -8.7580    7.6314 H         1 <0>         0.4434
@<TRIPOS>BOND
     1    1    2 1
     2    1   32 1
     3    1   33 1
     4    1   34 1
     5    2    7 1
     6    2    3 1
     7    3    4 1
     8    3   35 1
     9    3   36 1
    10    4    5 1
    11    4   37 1
    12    4   38 1
    13    5    6 1
    14    5    8 1
    15    6    7 1
    16    6   39 1
    17    6   40 1
    18    7   41 1
    19    7   42 1
    20    8   13 ar
    21    8    9 ar
    22    9   10 ar
    23    9   43 1
    24   10   11 ar
    25   10   44 1
    26   11   12 ar
    27   11   14 1
    28   12   13 ar
    29   12   45 1
    30   13   46 1
    31   14   15 1
    32   14   47 1
    33   15   20 ar
    34   15   16 ar
    35   16   17 ar
    36   16   48 1
    37   17   18 ar
    38   17   49 1
    39   18   19 ar
    40   18   57 1
    41   19   24 ar
    42   19   20 ar
    43   20   21 ar
    44   21   22 ar
    45   21   50 1
    46   22   23 ar
    47   22   25 1
    48   23   24 ar
    49   23   51 1
    50   24   52 1
    51   25   30 ar
    52   25   26 ar
    53   26   27 ar
    54   26   53 1
    55   27   28 ar
    56   27   54 1
    57   28   29 ar
    58   28   31 1
    59   29   30 ar
    60   29   55 1
    61   30   56 1
@<TRIPOS>MOLECULE
CHEMBL255210
   40    43     0     0     0
SMALL
USER_CHARGES

@<TRIPOS>ATOM
      1 C1          0.9533   -0.4396    0.7110 C.ar      1 <0>        -0.1502
      2 C2          2.1967    0.1711    0.7274 C.ar      1 <0>        -0.0792
      3 C3          2.3684    1.3415   -0.0075 C.ar      1 <0>         0.0967
      4 C4          1.2936    1.8503   -0.7254 C.ar      1 <0>         0.0782
      5 N1          0.1270    1.2372   -0.7136 N.ar      1 <0>        -0.4647
      6 C5         -0.0680    0.1276   -0.0280 C.ar      1 <0>         0.0812
      7 N2          3.6048    1.9953   -0.0221 N.am      1 <0>        -0.6638
      8 C6          4.7452    1.2823    0.0649 C.2       1 <0>         0.5655
      9 O1          4.7044    0.0672    0.0594 O.2       1 <0>        -0.5175
     10 C7          6.0448    1.9772    0.1670 C.ar      1 <0>        -0.1141
     11 C8          6.0875    3.3790    0.1789 C.ar      1 <0>        -0.1204
     12 C9          7.2780    4.0320    0.2715 C.ar      1 <0>        -0.0615
     13 C10         8.4738    3.3044    0.3544 C.ar      1 <0>        -0.0905
     14 C11         9.8354    3.6876    0.4537 C.2       1 <0>        -0.1223
     15 C12        10.5700    2.5582    0.4982 C.2       1 <0>         0.0289
     16 N3          9.7388    1.4544    0.4358 N.pl3     1 <0>        -0.4612
     17 C13         8.4416    1.8935    0.3451 C.ar      1 <0>         0.1029
     18 C14         7.2195    1.2380    0.2567 C.ar      1 <0>        -0.0532
     19 C15        10.2212    0.0729    0.4610 C.3       1 <0>         0.1051
     20 C16        10.9163   -0.2595   -0.8648 C.3       1 <0>        -0.1578
     21 C17        11.7978    0.9120   -1.2942 C.3       1 <0>         0.1058
     22 N4         12.5894    1.4686   -0.2081 N.am      1 <0>        -0.7268
     23 C18        12.0421    2.4096    0.5990 C.2       1 <0>         0.5908
     24 O2         12.7128    3.0867    1.3545 O.2       1 <0>        -0.5011
     25 H1          0.7850   -1.3510    1.2656 H         1 <0>         0.1401
     26 H2          3.0125   -0.2498    1.2963 H         1 <0>         0.1457
     27 H3          1.4150    2.7575   -1.2987 H         1 <0>         0.1583
     28 H4         -1.0392   -0.3446   -0.0442 H         1 <0>         0.1594
     29 H5          3.6415    2.9619   -0.0949 H         1 <0>         0.4149
     30 H6          5.1694    3.9440    0.1138 H         1 <0>         0.1283
     31 H7          7.3017    5.1117    0.2808 H         1 <0>         0.1356
     32 H8         10.2143    4.6984    0.4873 H         1 <0>         0.1592
     33 H9          7.1823    0.1586    0.2531 H         1 <0>         0.1366
     34 H10        10.9285   -0.0489    1.2814 H         1 <0>         0.0890
     35 H11         9.3784   -0.6026    0.6075 H         1 <0>         0.1005
     36 H12        11.5328   -1.1494   -0.7377 H         1 <0>         0.0917
     37 H13        10.1643   -0.4472   -1.6312 H         1 <0>         0.0893
     38 H14        12.4726    0.5718   -2.0797 H         1 <0>         0.0927
     39 H15        11.1610    1.6977   -1.7006 H         1 <0>         0.0780
     40 H16        13.5004    1.1688   -0.0628 H         1 <0>         0.4099
@<TRIPOS>BOND
     1    1    6 ar
     2    1    2 ar
     3    1   25 1
     4    2    3 ar
     5    2   26 1
     6    3    4 ar
     7    3    7 1
     8    4    5 ar
     9    4   27 1
    10    5    6 ar
    11    6   28 1
    12    7    8 am
    13    7   29 1
    14    8    9 2
    15    8   10 1
    16   10   18 ar
    17   10   11 ar
    18   11   12 ar
    19   11   30 1
    20   12   13 ar
    21   12   31 1
    22   13   17 ar
    23   13   14 1
    24   14   15 2
    25   14   32 1
    26   15   23 1
    27   15   16 1
    28   16   17 1
    29   16   19 1
    30   17   18 ar
    31   18   33 1
    32   19   20 1
    33   19   34 1
    34   19   35 1
    35   20   21 1
    36   20   36 1
    37   20   37 1
    38   21   22 1
    39   21   38 1
    40   21   39 1
    41   22   23 am
    42   22   40 1
    43   23   24 2
@<TRIPOS>MOLECULE
CHEMBL270150
   60    64     0     0     0
SMALL
USER_CHARGES

@<TRIPOS>ATOM
      1 C1          0.0726    1.5231    0.0632 C.3       1 <0>        -0.1617
      2 C2          0.0021   -0.0041    0.0020 C.3       1 <0>         0.1481
      3 C3         -1.4601   -0.4464   -0.0320 C.3       1 <0>         0.1100
      4 N1         -2.1294   -0.2613    1.2506 N.am      1 <0>        -0.7299
      5 C4         -1.5144   -0.5423    2.4231 C.2       1 <0>         0.5925
      6 O1         -2.1226   -0.5608    3.4761 O.2       1 <0>        -0.5058
      7 C5         -0.0669   -0.8255    2.3570 C.2       1 <0>         0.0120
      8 N2          0.6517   -0.5725    1.1885 N.pl3     1 <0>        -0.4553
      9 C6          1.9424   -0.9316    1.3926 C.ar      1 <0>         0.1189
     10 C7          3.0602   -0.9082    0.5624 C.ar      1 <0>        -0.0578
     11 C8          4.2647   -1.3590    1.1082 C.ar      1 <0>        -0.1088
     12 C9          4.3545   -1.8153    2.4282 C.ar      1 <0>        -0.1289
     13 C10         3.2684   -1.8468    3.2589 C.ar      1 <0>        -0.0488
     14 C11         2.0457   -1.3998    2.7325 C.ar      1 <0>        -0.1003
     15 C12         0.7647   -1.3071    3.3043 C.2       1 <0>        -0.0992
     16 C13         5.4789   -1.3545    0.2671 C.2       1 <0>         0.5664
     17 O2          5.4208   -0.9622   -0.8821 O.2       1 <0>        -0.4994
     18 N3          6.6512   -1.7852    0.7738 N.am      1 <0>        -0.6036
     19 C14         7.7921   -1.7809   -0.0165 C.2       1 <0>         0.2691
     20 N4          9.0155   -2.1626    0.2893 N.2       1 <0>        -0.4983
     21 C15         9.9631   -2.0650   -0.6476 C.2       1 <0>         0.0003
     22 C16         9.6278   -1.5760   -1.8790 C.2       1 <0>        -0.2396
     23 S1          7.9824   -1.2644   -1.7133 S.3       1 <0>         0.2649
     24 C17        11.3462   -2.4772   -0.3581 C.2       1 <0>         0.5935
     25 O3         12.2014   -2.3838   -1.2181 O.2       1 <0>        -0.5348
     26 N5         11.6651   -2.9581    0.8599 N.am      1 <0>        -0.7107
     27 C18        13.0416   -3.3683    1.1481 C.3       1 <0>         0.1441
     28 C19        13.2513   -4.8115    0.6852 C.3       1 <0>        -0.1291
     29 C20        14.6889   -5.2399    0.9862 C.3       1 <0>        -0.1174
     30 C21        14.9447   -5.1450    2.4916 C.3       1 <0>        -0.1225
     31 C22        14.7351   -3.7018    2.9546 C.3       1 <0>        -0.1161
     32 C23        13.2975   -3.2734    2.6536 C.3       1 <0>        -0.1259
     33 C24         0.7160   -0.4985   -1.2577 C.3       1 <0>        -0.1656
     34 H1          1.1158    1.8378    0.0917 H         1 <0>         0.0704
     35 H2         -0.4101    1.9447   -0.8184 H         1 <0>         0.0836
     36 H3         -0.4376    1.8747    0.9599 H         1 <0>         0.0660
     37 H4         -1.9861    0.1326   -0.7911 H         1 <0>         0.1096
     38 H5         -1.5031   -1.5013   -0.3032 H         1 <0>         0.0784
     39 H6         -3.0400    0.0725    1.2636 H         1 <0>         0.4116
     40 H7          2.9987   -0.5577   -0.4573 H         1 <0>         0.1519
     41 H8          5.3099   -2.1529    2.8019 H         1 <0>         0.1251
     42 H9          3.3478   -2.2004    4.2763 H         1 <0>         0.1451
     43 H10         0.4958   -1.5723    4.3161 H         1 <0>         0.1625
     44 H11         6.6975   -2.0981    1.6907 H         1 <0>         0.4275
     45 H12        10.2593   -1.4304   -2.7429 H         1 <0>         0.2089
     46 H13        10.9832   -3.0325    1.5457 H         1 <0>         0.4082
     47 H14        13.7342   -2.7131    0.6198 H         1 <0>         0.0890
     48 H15        12.5587   -5.4667    1.2135 H         1 <0>         0.0636
     49 H16        13.0690   -4.8791   -0.3873 H         1 <0>         0.0672
     50 H17        14.8382   -6.2680    0.6564 H         1 <0>         0.0653
     51 H18        15.3814   -4.5846    0.4579 H         1 <0>         0.0649
     52 H19        14.2522   -5.8002    3.0199 H         1 <0>         0.0627
     53 H20        15.9689   -5.4502    2.7061 H         1 <0>         0.0644
     54 H21        14.9174   -3.6342    4.0271 H         1 <0>         0.0678
     55 H22        15.4277   -3.0466    2.4263 H         1 <0>         0.0655
     56 H23        13.1482   -2.2453    2.9834 H         1 <0>         0.0688
     57 H24        12.6050   -3.9287    3.1819 H         1 <0>         0.0684
     58 H25         1.7081   -0.0504   -1.3126 H         1 <0>         0.0807
     59 H26         0.8090   -1.5839   -1.2202 H         1 <0>         0.0742
     60 H27         0.1394   -0.2134   -2.1376 H         1 <0>         0.0887
@<TRIPOS>BOND
     1    1    2 1
     2    1   34 1
     3    1   35 1
     4    1   36 1
     5    2    8 1
     6    2    3 1
     7    2   33 1
     8    3    4 1
     9    3   37 1
    10    3   38 1
    11    4    5 am
    12    4   39 1
    13    5    6 2
    14    5    7 1
    15    7   15 2
    16    7    8 1
    17    8    9 1
    18    9   14 ar
    19    9   10 ar
    20   10   11 ar
    21   10   40 1
    22   11   12 ar
    23   11   16 1
    24   12   13 ar
    25   12   41 1
    26   13   14 ar
    27   13   42 1
    28   14   15 1
    29   15   43 1
    30   16   17 2
    31   16   18 am
    32   18   19 1
    33   18   44 1
    34   19   23 1
    35   19   20 2
    36   20   21 1
    37   21   22 2
    38   21   24 1
    39   22   23 1
    40   22   45 1
    41   24   25 2
    42   24   26 am
    43   26   27 1
    44   26   46 1
    45   27   32 1
    46   27   28 1
    47   27   47 1
    48   28   29 1
    49   28   48 1
    50   28   49 1
    51   29   30 1
    52   29   50 1
    53   29   51 1
    54   30   31 1
    55   30   52 1
    56   30   53 1
    57   31   32 1
    58   31   54 1
    59   31   55 1
    60   32   56 1
    61   32   57 1
    62   33   58 1
    63   33   59 1
    64   33   60 1
@<TRIPOS>MOLECULE
CHEMBL403286
   70    75     0     0     0
SMALL
USER_CHARGES

@<TRIPOS>ATOM
      1 C1         -0.0187    1.5258    0.0104 C.3       1 <0>        -0.1689
      2 C2          0.0021   -0.0041    0.0020 C.3       1 <0>         0.1197
      3 C3         -1.4307   -0.5338    0.0188 C.3       1 <0>         0.1045
      4 N1         -2.0840   -0.3474    1.3083 N.am      1 <0>        -0.7279
      5 C4         -1.4232   -0.5167    2.4781 C.2       1 <0>         0.5909
      6 O1         -1.9985   -0.4858    3.5493 O.2       1 <0>        -0.5035
      7 C5          0.0332   -0.7414    2.3835 C.2       1 <0>         0.0181
      8 N2          0.7113   -0.4909    1.1900 N.pl3     1 <0>        -0.4595
      9 C6          2.0234   -0.7734    1.3752 C.ar      1 <0>         0.1147
     10 C7          3.1236   -0.6980    0.5247 C.ar      1 <0>        -0.0481
     11 C8          4.3605   -1.0755    1.0532 C.ar      1 <0>        -0.1130
     12 C9          4.4986   -1.5112    2.3759 C.ar      1 <0>        -0.1296
     13 C10         3.4310   -1.5912    3.2271 C.ar      1 <0>        -0.0488
     14 C11         2.1766   -1.2168    2.7189 C.ar      1 <0>        -0.0967
     15 C12         0.9039   -1.1816    3.3157 C.2       1 <0>        -0.1019
     16 C13         5.5577   -1.0134    0.1902 C.2       1 <0>         0.5678
     17 O2          5.4579   -0.6379   -0.9617 O.2       1 <0>        -0.4962
     18 N3          6.7608   -1.3729    0.6800 N.am      1 <0>        -0.6051
     19 C14         7.8857   -1.3145   -0.1308 C.2       1 <0>         0.2748
     20 N4          9.1335   -1.6246    0.1567 N.2       1 <0>        -0.5066
     21 C15        10.0577   -1.4854   -0.7982 C.2       1 <0>        -0.0114
     22 C16         9.6743   -1.0296   -2.0282 C.2       1 <0>        -0.2383
     23 S1          8.0174   -0.8075   -1.8360 S.3       1 <0>         0.2856
     24 C17        11.4664   -1.8173   -0.5295 C.2       1 <0>         0.6041
     25 O3         12.2999   -1.6866   -1.4058 O.2       1 <0>        -0.5275
     26 N5         11.8327   -2.2661    0.6874 N.am      1 <0>        -0.7161
     27 C18        13.2347   -2.5965    0.9548 C.3       1 <0>         0.1361
     28 C19        13.5152   -4.0354    0.5122 C.3       1 <0>        -0.1609
     29 C20        14.9584   -4.4002    0.8667 C.3       1 <0>        -0.0023
     30 N6         15.1536   -4.2859    2.3170 N.4       1 <0>        -0.3830
     31 C21        14.9564   -2.8937    2.7380 C.3       1 <0>        -0.0069
     32 C22        13.5132   -2.4709    2.4555 C.3       1 <0>        -0.1535
     33 C23        16.5168   -4.7116    2.6611 C.3       1 <0>         0.0440
     34 C24        16.6797   -4.7122    4.1593 C.ar      1 <0>        -0.1617
     35 C25        17.1147   -3.5714    4.8077 C.ar      1 <0>        -0.0983
     36 C26        17.2642   -3.5719    6.1819 C.ar      1 <0>        -0.1133
     37 C27        16.9782   -4.7130    6.9078 C.ar      1 <0>        -0.0841
     38 C28        16.5424   -5.8535    6.2596 C.ar      1 <0>        -0.1128
     39 C29        16.3888   -5.8517    4.8858 C.ar      1 <0>        -0.0937
     40 H1          1.0039    1.9031    0.0027 H         1 <0>         0.0696
     41 H2         -0.5459    1.8868   -0.8726 H         1 <0>         0.0853
     42 H3         -0.5289    1.8773    0.9072 H         1 <0>         0.0666
     43 H4          0.5107   -0.3563   -0.8954 H         1 <0>         0.1189
     44 H5         -2.0072   -0.0139   -0.7463 H         1 <0>         0.1118
     45 H6         -1.4153   -1.5978   -0.2174 H         1 <0>         0.0783
     46 H7         -3.0202   -0.0943    1.3291 H         1 <0>         0.4128
     47 H8          3.0249   -0.3633   -0.4973 H         1 <0>         0.1475
     48 H9          5.4775   -1.7923    2.7354 H         1 <0>         0.1230
     49 H10         3.5476   -1.9286    4.2464 H         1 <0>         0.1454
     50 H11         0.6669   -1.4559    4.3331 H         1 <0>         0.1638
     51 H12         6.8404   -1.6725    1.5991 H         1 <0>         0.4277
     52 H13        10.2815   -0.8591   -2.9049 H         1 <0>         0.2098
     53 H14        11.1681   -2.3704    1.3862 H         1 <0>         0.4152
     54 H15        13.8815   -1.9123    0.4056 H         1 <0>         0.1063
     55 H16        12.8322   -4.7134    1.0240 H         1 <0>         0.0909
     56 H17        13.3728   -4.1191   -0.5652 H         1 <0>         0.1182
     57 H18        15.1615   -5.4240    0.5528 H         1 <0>         0.1350
     58 H19        15.6405   -3.7219    0.3542 H         1 <0>         0.1331
     59 H20        15.1581   -2.8053    3.8055 H         1 <0>         0.1368
     60 H21        15.6386   -2.2475    2.1856 H         1 <0>         0.1326
     61 H22        13.3693   -1.4364    2.7671 H         1 <0>         0.1194
     62 H23        12.8301   -3.1164    3.0076 H         1 <0>         0.0942
     63 H24        16.6918   -5.7163    2.2763 H         1 <0>         0.1379
     64 H25        17.2355   -4.0224    2.2178 H         1 <0>         0.1364
     65 H26        17.3382   -2.6799    4.2405 H         1 <0>         0.1314
     66 H27        17.6047   -2.6809    6.6884 H         1 <0>         0.1362
     67 H28        17.0957   -4.7136    7.9814 H         1 <0>         0.1359
     68 H29        16.3193   -6.7451    6.8267 H         1 <0>         0.1361
     69 H30        16.0447   -6.7415    4.3797 H         1 <0>         0.1312
     70 H31        14.4886   -4.8774    2.7925 H         1 <0>         0.4221
@<TRIPOS>BOND
     1    1    2 1
     2    1   40 1
     3    1   41 1
     4    1   42 1
     5    2    8 1
     6    2    3 1
     7    2   43 1
     8    3    4 1
     9    3   44 1
    10    3   45 1
    11    4    5 am
    12    4   46 1
    13    5    6 2
    14    5    7 1
    15    7   15 2
    16    7    8 1
    17    8    9 1
    18    9   14 ar
    19    9   10 ar
    20   10   11 ar
    21   10   47 1
    22   11   12 ar
    23   11   16 1
    24   12   13 ar
    25   12   48 1
    26   13   14 ar
    27   13   49 1
    28   14   15 1
    29   15   50 1
    30   16   17 2
    31   16   18 am
    32   18   19 1
    33   18   51 1
    34   19   23 1
    35   19   20 2
    36   20   21 1
    37   21   22 2
    38   21   24 1
    39   22   23 1
    40   22   52 1
    41   24   25 2
    42   24   26 am
    43   26   27 1
    44   26   53 1
    45   27   32 1
    46   27   28 1
    47   27   54 1
    48   28   29 1
    49   28   55 1
    50   28   56 1
    51   29   30 1
    52   29   57 1
    53   29   58 1
    54   30   31 1
    55   30   33 1
    56   30   70 1
    57   31   32 1
    58   31   59 1
    59   31   60 1
    60   32   61 1
    61   32   62 1
    62   33   34 1
    63   33   63 1
    64   33   64 1
    65   34   39 ar
    66   34   35 ar
    67   35   36 ar
    68   35   65 1
    69   36   37 ar
    70   36   66 1
    71   37   38 ar
    72   37   67 1
    73   38   39 ar
    74   38   68 1
    75   39   69 1
@<TRIPOS>MOLECULE
CHEMBL403286__1
   70    75     0     0     0
SMALL
USER_CHARGES

@<TRIPOS>ATOM
      1 C1         -0.0187    1.5258    0.0104 C.3       1 <0>        -0.1689
      2 C2          0.0021   -0.0041    0.0020 C.3       1 <0>         0.1196
      3 C3          0.7222   -0.4976   -1.2516 C.3       1 <0>         0.1044
      4 N1          2.1617   -0.2761   -1.1972 N.am      1 <0>        -0.7279
      5 C4          2.8705   -0.4441   -0.0556 C.2       1 <0>         0.5909
      6 O1          4.0850   -0.3819   -0.0404 O.2       1 <0>        -0.5034
      7 C5          2.0896   -0.7064    1.1700 C.2       1 <0>         0.0181
      8 N2          0.7113   -0.4909    1.1900 N.pl3     1 <0>        -0.4594
      9 C6          0.2465   -0.8036    2.4237 C.ar      1 <0>         0.1146
     10 C7         -1.0312   -0.7684    2.9763 C.ar      1 <0>        -0.0480
     11 C8         -1.1570   -1.1690    4.3088 C.ar      1 <0>        -0.1131
     12 C9         -0.0551   -1.5886    5.0628 C.ar      1 <0>        -0.1295
     13 C10         1.2075   -1.6297    4.5387 C.ar      1 <0>        -0.0489
     14 C11         1.3596   -1.2310    3.2008 C.ar      1 <0>        -0.0966
     15 C12         2.4958   -1.1540    2.3764 C.2       1 <0>        -0.1020
     16 C13        -2.4920   -1.1487    4.9405 C.2       1 <0>         0.5678
     17 O2         -3.4612   -0.7870    4.3019 O.2       1 <0>        -0.4962
     18 N3         -2.6357   -1.5312    6.2249 N.am      1 <0>        -0.6051
     19 C14        -3.8900   -1.5121    6.8184 C.2       1 <0>         0.2748
     20 N4         -4.2318   -1.8389    8.0482 N.2       1 <0>        -0.5066
     21 C15        -5.5178   -1.7386    8.3968 C.2       1 <0>        -0.0114
     22 C16        -6.4225   -1.3034    7.4694 C.2       1 <0>        -0.2383
     23 S1         -5.4583   -1.0312    6.1174 S.3       1 <0>         0.2856
     24 C17        -5.9533   -2.0916    9.7579 C.2       1 <0>         0.6041
     25 O3         -7.1266   -1.9970   10.0648 O.2       1 <0>        -0.5275
     26 N5         -5.0521   -2.5195   10.6641 N.am      1 <0>        -0.7161
     27 C18        -5.4855   -2.8708   12.0187 C.3       1 <0>         0.1361
     28 C19        -5.5263   -1.6097   12.8865 C.3       1 <0>        -0.1609
     29 C20        -5.9024   -1.9948   14.3189 C.3       1 <0>        -0.0023
     30 N6         -4.9053   -2.9283   14.8563 N.4       1 <0>        -0.3830
     31 C21        -4.9111   -4.1691   14.0722 C.3       1 <0>        -0.0069
     32 C22        -4.4968   -3.8677   12.6303 C.3       1 <0>        -0.1535
     33 C23        -5.2276   -3.2341   16.2565 C.3       1 <0>         0.0440
     34 C24        -4.1394   -4.0937   16.8463 C.ar      1 <0>        -0.1617
     35 C25        -4.2243   -5.4709   16.7620 C.ar      1 <0>        -0.0982
     36 C26        -3.2261   -6.2593   17.3030 C.ar      1 <0>        -0.1134
     37 C27        -2.1427   -5.6707   17.9279 C.ar      1 <0>        -0.0841
     38 C28        -2.0572   -4.2935   18.0114 C.ar      1 <0>        -0.1128
     39 C29        -3.0533   -3.5049   17.4666 C.ar      1 <0>        -0.0938
     40 H1          1.0039    1.9031    0.0027 H         1 <0>         0.0666
     41 H2         -0.5459    1.8868   -0.8726 H         1 <0>         0.0853
     42 H3         -0.5289    1.8773    0.9072 H         1 <0>         0.0695
     43 H4         -1.0203   -0.3820    0.0080 H         1 <0>         0.1190
     44 H5          0.5345   -1.5650   -1.3680 H         1 <0>         0.0784
     45 H6          0.3181    0.0252   -2.1184 H         1 <0>         0.1118
     46 H7          2.6259    0.0003   -2.0028 H         1 <0>         0.4128
     47 H8         -1.8863   -0.4456    2.4010 H         1 <0>         0.1475
     48 H9         -0.2063   -1.8886    6.0893 H         1 <0>         0.1230
     49 H10         2.0517   -1.9550    5.1287 H         1 <0>         0.1454
     50 H11         3.5076   -1.4074    2.6569 H         1 <0>         0.1638
     51 H12        -1.8623   -1.8198    6.7344 H         1 <0>         0.4277
     52 H13        -7.4880   -1.1647    7.5783 H         1 <0>         0.2098
     53 H14        -4.1165   -2.5949   10.4193 H         1 <0>         0.4152
     54 H15        -6.4780   -3.3196   11.9789 H         1 <0>         0.1063
     55 H16        -4.5458   -1.1336   12.8831 H         1 <0>         0.0909
     56 H17        -6.2688   -0.9180   12.4886 H         1 <0>         0.1182
     57 H18        -5.9326   -1.0992   14.9394 H         1 <0>         0.1350
     58 H19        -6.8831   -2.4705   14.3211 H         1 <0>         0.1331
     59 H20        -4.2094   -4.8787   14.5105 H         1 <0>         0.1368
     60 H21        -5.9129   -4.5984   14.0797 H         1 <0>         0.1326
     61 H22        -4.5035   -4.7899   12.0493 H         1 <0>         0.1194
     62 H23        -3.4949   -3.4385   12.6216 H         1 <0>         0.0942
     63 H24        -5.3045   -2.3059   16.8227 H         1 <0>         0.1379
     64 H25        -6.1771   -3.7675   16.3026 H         1 <0>         0.1364
     65 H26        -5.0708   -5.9308   16.2737 H         1 <0>         0.1314
     66 H27        -3.2928   -7.3353   17.2377 H         1 <0>         0.1362
     67 H28        -1.3631   -6.2867   18.3512 H         1 <0>         0.1359
     68 H29        -1.2109   -3.8336   18.4999 H         1 <0>         0.1361
     69 H30        -2.9848   -2.4289   17.5285 H         1 <0>         0.1312
     70 H31        -3.9903   -2.5057   14.8085 H         1 <0>         0.4221
@<TRIPOS>BOND
     1    1    2 1
     2    1   40 1
     3    1   41 1
     4    1   42 1
     5    2    8 1
     6    2    3 1
     7    2   43 1
     8    3    4 1
     9    3   44 1
    10    3   45 1
    11    4    5 am
    12    4   46 1
    13    5    6 2
    14    5    7 1
    15    7   15 2
    16    7    8 1
    17    8    9 1
    18    9   14 ar
    19    9   10 ar
    20   10   11 ar
    21   10   47 1
    22   11   12 ar
    23   11   16 1
    24   12   13 ar
    25   12   48 1
    26   13   14 ar
    27   13   49 1
    28   14   15 1
    29   15   50 1
    30   16   17 2
    31   16   18 am
    32   18   19 1
    33   18   51 1
    34   19   23 1
    35   19   20 2
    36   20   21 1
    37   21   22 2
    38   21   24 1
    39   22   23 1
    40   22   52 1
    41   24   25 2
    42   24   26 am
    43   26   27 1
    44   26   53 1
    45   27   32 1
    46   27   28 1
    47   27   54 1
    48   28   29 1
    49   28   55 1
    50   28   56 1
    51   29   30 1
    52   29   57 1
    53   29   58 1
    54   30   31 1
    55   30   33 1
    56   30   70 1
    57   31   32 1
    58   31   59 1
    59   31   60 1
    60   32   61 1
    61   32   62 1
    62   33   34 1
    63   33   63 1
    64   33   64 1
    65   34   39 ar
    66   34   35 ar
    67   35   36 ar
    68   35   65 1
    69   36   37 ar
    70   36   66 1
    71   37   38 ar
    72   37   67 1
    73   38   39 ar
    74   38   68 1
    75   39   69 1
@<TRIPOS>MOLECULE
CHEMBL549915
   45    49     0     0     0
SMALL
USER_CHARGES

@<TRIPOS>ATOM
      1 C1         -1.9982    0.6065    0.5272 C.3       1 <0>        -0.1119
      2 C2         -0.9413   -0.4309    0.2482 C.ar      1 <0>        -0.0034
      3 C3         -0.9682   -1.1757   -0.9185 C.ar      1 <0>        -0.1763
      4 C4          0.0178   -2.1191   -1.1417 C.ar      1 <0>         0.1121
      5 N1          0.9802   -2.3186   -0.2616 N.ar      1 <0>        -0.4872
      6 C5          1.0474   -1.6347    0.8619 C.ar      1 <0>         0.1274
      7 C6          0.0944   -0.6616    1.1581 C.ar      1 <0>        -0.1077
      8 C7          0.1750    0.1127    2.4204 C.ar      1 <0>         0.1921
      9 C8          0.3966   -0.5659    3.6264 C.ar      1 <0>        -0.1407
     10 C9          0.4695    0.1396    4.7951 C.ar      1 <0>        -0.0810
     11 C10         0.3180    1.5322    4.7378 C.ar      1 <0>        -0.0457
     12 C11         0.1018    2.1622    3.4947 C.ar      1 <0>         0.1332
     13 N2          0.0416    1.4252    2.3810 N.ar      1 <0>        -0.4446
     14 C12        -0.0438    3.5651    3.4291 C.ar      1 <0>        -0.0519
     15 C13         0.0185    4.3126    4.5601 C.ar      1 <0>        -0.0622
     16 C14         0.2238    3.7273    5.8040 C.ar      1 <0>        -0.0937
     17 C15         0.3822    2.3430    5.9715 C.ar      1 <0>        -0.1237
     18 C16         0.5853    1.8767    7.2992 C.2       1 <0>         0.2483
     19 C17         0.6056    2.8214    8.3118 C.2       1 <0>        -0.2893
     20 S1          0.3536    4.3650    7.4547 S.3       1 <0>         0.1952
     21 C18         0.7727    2.6828    9.6894 C.2       1 <0>         0.6028
     22 O1          0.6600    3.7129   10.3290 O.2       1 <0>        -0.5674
     23 N3          1.0327    1.6105   10.4027 N.am      1 <0>        -0.6967
     24 C19         1.2441    0.2582    9.9474 C.3       1 <0>         0.1104
     25 H1          2.2868    0.1487    9.6494 H         1 <0>         0.0765
     26 C20         0.3635   -0.1268    8.7804 C.3       1 <0>         0.1101
     27 N4          0.7579    0.5106    7.5476 N.pl3     1 <0>        -0.7323
     28 C21         0.9633   -0.6994   11.1072 C.3       1 <0>        -0.1639
     29 H2         -1.6399    1.5852    0.2081 H         1 <0>         0.0875
     30 H3         -2.9068    0.3559   -0.0204 H         1 <0>         0.0689
     31 H4         -2.2124    0.6287    1.5957 H         1 <0>         0.0672
     32 H5         -1.7511   -1.0218   -1.6464 H         1 <0>         0.1402
     33 H6         -0.0004   -2.7021   -2.0506 H         1 <0>         0.1600
     34 H7          1.8504   -1.8267    1.5581 H         1 <0>         0.1577
     35 H8          0.5088   -1.6400    3.6326 H         1 <0>         0.1439
     36 H9          0.6386   -0.3619    5.7365 H         1 <0>         0.1460
     37 H10        -0.2050    4.0452    2.4753 H         1 <0>         0.1510
     38 H11        -0.0934    5.3847    4.4922 H         1 <0>         0.1463
     39 H12         1.0905    1.7461   11.3615 H         1 <0>         0.4055
     40 H13         0.4088   -1.2077    8.6475 H         1 <0>         0.1051
     41 H14        -0.6647    0.1545    9.0081 H         1 <0>         0.0733
     42 H15         1.1630   -0.0357    6.8560 H         1 <0>         0.4010
     43 H16        -0.0681   -0.5770   11.4379 H         1 <0>         0.0687
     44 H17         1.1194   -1.7262   10.7765 H         1 <0>         0.0788
     45 H18         1.6386   -0.4771   11.9335 H         1 <0>         0.0704
@<TRIPOS>BOND
     1    1    2 1
     2    1   29 1
     3    1   30 1
     4    1   31 1
     5    2    7 ar
     6    2    3 ar
     7    3    4 ar
     8    3   32 1
     9    4    5 ar
    10    4   33 1
    11    5    6 ar
    12    6    7 ar
    13    6   34 1
    14    7    8 1
    15    8   13 ar
    16    8    9 ar
    17    9   10 ar
    18    9   35 1
    19   10   11 ar
    20   10   36 1
    21   11   17 ar
    22   11   12 ar
    23   12   13 ar
    24   12   14 ar
    25   14   15 ar
    26   14   37 1
    27   15   16 ar
    28   15   38 1
    29   16   20 1
    30   16   17 ar
    31   17   18 1
    32   18   27 1
    33   18   19 2
    34   19   20 1
    35   19   21 1
    36   21   22 2
    37   21   23 am
    38   23   24 1
    39   23   39 1
    40   24   25 1
    41   24   26 1
    42   24   28 1
    43   26   27 1
    44   26   40 1
    45   26   41 1
    46   27   42 1
    47   28   43 1
    48   28   44 1
    49   28   45 1
@<TRIPOS>MOLECULE
CHEMBL246090
   51    54     0     0     0
SMALL
USER_CHARGES

@<TRIPOS>ATOM
      1 C1         -0.0187    1.5258    0.0104 C.3       1 <0>        -0.1455
      2 C2          0.0021   -0.0041    0.0020 C.3       1 <0>        -0.0438
      3 C3         -1.4314   -0.5358    0.0275 C.3       1 <0>         0.1143
      4 N1         -2.0625   -0.3761    1.3312 N.am      1 <0>        -0.7147
      5 C4         -1.3906   -0.5584    2.4908 C.2       1 <0>         0.5934
      6 O1         -1.9624   -0.5504    3.5645 O.2       1 <0>        -0.5304
      7 C5          0.0651   -0.7676    2.3952 C.2       1 <0>         0.0041
      8 C6          0.7304   -0.5055    1.2219 C.2       1 <0>        -0.0905
      9 C7          2.0791   -0.7900    1.4314 C.ar      1 <0>        -0.1144
     10 C8          3.2015   -0.7066    0.5981 C.ar      1 <0>         0.0292
     11 C9          4.4259   -1.0826    1.1531 C.ar      1 <0>        -0.1705
     12 C10         4.5291   -1.5220    2.4784 C.ar      1 <0>        -0.0628
     13 C11         3.4412   -1.6080    3.3050 C.ar      1 <0>        -0.1241
     14 C12         2.2020   -1.2383    2.7781 C.ar      1 <0>         0.1341
     15 N2          0.9588   -1.2129    3.3372 N.pl3     1 <0>        -0.5349
     16 H1          0.7421   -1.4669    4.2479 H         1 <0>         0.4304
     17 C13         5.6433   -1.0156    0.3210 C.2       1 <0>         0.5685
     18 O2          5.5715   -0.6366   -0.8320 O.2       1 <0>        -0.5002
     19 N3          6.8345   -1.3745    0.8394 N.am      1 <0>        -0.6063
     20 C14         7.9792   -1.3115    0.0570 C.2       1 <0>         0.2688
     21 N4          9.2201   -1.6202    0.3746 N.2       1 <0>        -0.5008
     22 C15        10.1674   -1.4770   -0.5568 C.2       1 <0>        -0.0003
     23 C16         9.8138   -1.0186   -1.7948 C.2       1 <0>        -0.2389
     24 S1          8.1524   -0.7988   -1.6427 S.3       1 <0>         0.2690
     25 C17        11.5696   -1.8072   -0.2542 C.2       1 <0>         0.5932
     26 O3         12.4243   -1.6728   -1.1092 O.2       1 <0>        -0.5294
     27 N5         11.9064   -2.2586    0.9703 N.am      1 <0>        -0.7174
     28 C18        13.3020   -2.5872    1.2715 C.3       1 <0>         0.1320
     29 C19        13.4107   -3.0726    2.7184 C.3       1 <0>        -0.1554
     30 C20        14.8463   -3.4107    3.0282 C.2       1 <0>         0.5211
     31 O4         15.6984   -3.2766    2.1757 O.2       1 <0>        -0.5360
     32 N6         15.1831   -3.8620    4.2527 N.am      1 <0>        -0.8557
     33 H2          1.0039    1.9031    0.0027 H         1 <0>         0.0640
     34 H3         -0.5459    1.8868   -0.8726 H         1 <0>         0.0674
     35 H4         -0.5289    1.8773    0.9072 H         1 <0>         0.0559
     36 H5          0.5084   -0.3573   -0.8963 H         1 <0>         0.1075
     37 H6         -2.0197    0.0005   -0.7171 H         1 <0>         0.0963
     38 H7         -1.4194   -1.5946   -0.2311 H         1 <0>         0.0719
     39 H8         -2.9998   -0.1295    1.3688 H         1 <0>         0.4117
     40 H9          3.1235   -0.3682   -0.4245 H         1 <0>         0.1529
     41 H10         5.4991   -1.8028    2.8613 H         1 <0>         0.1287
     42 H11         3.5377   -1.9484    4.3254 H         1 <0>         0.1424
     43 H12         6.8918   -1.6768    1.7593 H         1 <0>         0.4254
     44 H13        10.4422   -0.8451   -2.6558 H         1 <0>         0.2094
     45 H14        11.2249   -2.3658    1.6521 H         1 <0>         0.4084
     46 H15        13.6437   -3.3732    0.5980 H         1 <0>         0.0794
     47 H16        13.9211   -1.7001    1.1383 H         1 <0>         0.0794
     48 H17        13.0691   -2.2866    3.3919 H         1 <0>         0.1031
     49 H18        12.7916   -3.9597    2.8515 H         1 <0>         0.1031
     50 H19        14.5016   -3.9692    4.9345 H         1 <0>         0.4025
     51 H20        16.1071   -4.0796    4.4521 H         1 <0>         0.4044
@<TRIPOS>BOND
     1    1    2 1
     2    1   33 1
     3    1   34 1
     4    1   35 1
     5    2    8 1
     6    2    3 1
     7    2   36 1
     8    3    4 1
     9    3   37 1
    10    3   38 1
    11    4    5 am
    12    4   39 1
    13    5    6 2
    14    5    7 1
    15    7   15 1
    16    7    8 2
    17    8    9 1
    18    9   14 ar
    19    9   10 ar
    20   10   11 ar
    21   10   40 1
    22   11   12 ar
    23   11   17 1
    24   12   13 ar
    25   12   41 1
    26   13   14 ar
    27   13   42 1
    28   14   15 1
    29   15   16 1
    30   17   18 2
    31   17   19 am
    32   19   20 1
    33   19   43 1
    34   20   24 1
    35   20   21 2
    36   21   22 1
    37   22   23 2
    38   22   25 1
    39   23   24 1
    40   23   44 1
    41   25   26 2
    42   25   27 am
    43   27   28 1
    44   27   45 1
    45   28   29 1
    46   28   46 1
    47   28   47 1
    48   29   30 1
    49   29   48 1
    50   29   49 1
    51   30   31 2
    52   30   32 am
    53   32   50 1
    54   32   51 1
@<TRIPOS>MOLECULE
CHEMBL246090__1
   51    54     0     0     0
SMALL
USER_CHARGES

@<TRIPOS>ATOM
      1 C1         -0.0187    1.5258    0.0104 C.3       1 <0>        -0.1455
      2 C2          0.0021   -0.0041    0.0020 C.3       1 <0>        -0.0438
      3 C3          0.7302   -0.4995   -1.2480 C.3       1 <0>         0.1143
      4 N1          2.1721   -0.3050   -1.1676 N.am      1 <0>        -0.7147
      5 C4          2.8670   -0.4869   -0.0216 C.2       1 <0>         0.5934
      6 O1          4.0827   -0.4481   -0.0025 O.2       1 <0>        -0.5304
      7 C5          2.0852   -0.7336    1.2032 C.2       1 <0>         0.0041
      8 C6          0.7304   -0.5055    1.2219 C.2       1 <0>        -0.0905
      9 C7          0.2693   -0.8196    2.4997 C.ar      1 <0>        -0.1144
     10 C8         -1.0044   -0.7764    3.0802 C.ar      1 <0>         0.0292
     11 C9         -1.1007   -1.1733    4.4149 C.ar      1 <0>        -0.1705
     12 C10         0.0205   -1.5945    5.1401 C.ar      1 <0>        -0.0628
     13 C11         1.2717   -1.6413    4.5864 C.ar      1 <0>        -0.1241
     14 C12         1.3999   -1.2499    3.2521 C.ar      1 <0>         0.1341
     15 N2          2.4891   -1.1862    2.4346 N.pl3     1 <0>        -0.5349
     16 H1          3.3971   -1.4215    2.6815 H         1 <0>         0.4304
     17 C13        -2.4186   -1.1478    5.0793 C.2       1 <0>         0.5685
     18 O2         -3.4025   -0.7845    4.4644 O.2       1 <0>        -0.5002
     19 N3         -2.5313   -1.5274    6.3676 N.am      1 <0>        -0.6063
     20 C14        -3.7705   -1.5035    6.9923 C.2       1 <0>         0.2689
     21 N4         -4.0825   -1.8269    8.2308 N.2       1 <0>        -0.5009
     22 C15        -5.3590   -1.7214    8.6115 C.2       1 <0>        -0.0003
     23 C16        -6.2851   -1.2848    7.7063 C.2       1 <0>        -0.2389
     24 S1         -5.3544   -1.0194    6.3297 S.3       1 <0>         0.2688
     25 C17        -5.7614   -2.0704    9.9837 C.2       1 <0>         0.5932
     26 O3         -6.9263   -1.9712   10.3198 O.2       1 <0>        -0.5295
     27 N5         -4.8392   -2.5000   10.8677 N.am      1 <0>        -0.7174
     28 C18        -5.2397   -2.8473   12.2335 C.3       1 <0>         0.1321
     29 C19        -4.0117   -3.3016   13.0251 C.3       1 <0>        -0.1554
     30 C20        -4.4237   -3.6589   14.4299 C.2       1 <0>         0.5211
     31 O4         -5.5851   -3.5600   14.7650 O.2       1 <0>        -0.5360
     32 N6         -3.5015   -4.0884   15.3140 N.am      1 <0>        -0.8557
     33 H2          1.0039    1.9031    0.0027 H         1 <0>         0.0559
     34 H3         -0.5459    1.8868   -0.8726 H         1 <0>         0.0674
     35 H4         -0.5289    1.8773    0.9072 H         1 <0>         0.0640
     36 H5         -1.0199   -0.3830    0.0056 H         1 <0>         0.1075
     37 H6          0.5243   -1.5619   -1.3782 H         1 <0>         0.0719
     38 H7          0.3494    0.0403   -2.1151 H         1 <0>         0.0963
     39 H8          2.6518   -0.0352   -1.9663 H         1 <0>         0.4117
     40 H9         -1.8701   -0.4515    2.5222 H         1 <0>         0.1529
     41 H10        -0.1058   -1.8919    6.1706 H         1 <0>         0.1287
     42 H11         2.1267   -1.9681    5.1596 H         1 <0>         0.1424
     43 H12        -1.7464   -1.8174    6.8582 H         1 <0>         0.4254
     44 H13        -7.3470   -1.1417    7.8417 H         1 <0>         0.2094
     45 H14        -3.9103   -2.5791   10.5997 H         1 <0>         0.4084
     46 H15        -5.6806   -1.9749   12.7158 H         1 <0>         0.0794
     47 H16        -5.9715   -3.6545   12.2033 H         1 <0>         0.0794
     48 H17        -3.5708   -4.1740   12.5427 H         1 <0>         0.1031
     49 H18        -3.2798   -2.4944   13.0552 H         1 <0>         0.1031
     50 H19        -2.5726   -4.1676   15.0460 H         1 <0>         0.4025
     51 H20        -3.7666   -4.3184   16.2182 H         1 <0>         0.4044
@<TRIPOS>BOND
     1    1    2 1
     2    1   33 1
     3    1   34 1
     4    1   35 1
     5    2    8 1
     6    2    3 1
     7    2   36 1
     8    3    4 1
     9    3   37 1
    10    3   38 1
    11    4    5 am
    12    4   39 1
    13    5    6 2
    14    5    7 1
    15    7   15 1
    16    7    8 2
    17    8    9 1
    18    9   14 ar
    19    9   10 ar
    20   10   11 ar
    21   10   40 1
    22   11   12 ar
    23   11   17 1
    24   12   13 ar
    25   12   41 1
    26   13   14 ar
    27   13   42 1
    28   14   15 1
    29   15   16 1
    30   17   18 2
    31   17   19 am
    32   19   20 1
    33   19   43 1
    34   20   24 1
    35   20   21 2
    36   21   22 1
    37   22   23 2
    38   22   25 1
    39   23   24 1
    40   23   44 1
    41   25   26 2
    42   25   27 am
    43   27   28 1
    44   27   45 1
    45   28   29 1
    46   28   46 1
    47   28   47 1
    48   29   30 1
    49   29   48 1
    50   29   49 1
    51   30   31 2
    52   30   32 am
    53   32   50 1
    54   32   51 1
@<TRIPOS>MOLECULE
CHEMBL397642
   63    67     0     0     0
SMALL
USER_CHARGES

@<TRIPOS>ATOM
      1 C1          0.3525    2.6231   -0.1272 C.3       1 <0>        -0.1462
      2 C2          0.2478    1.1417    0.2408 C.3       1 <0>        -0.0439
      3 C3         -1.2173    0.7764    0.4823 C.3       1 <0>         0.1135
      4 N1         -1.7239    1.3061    1.7417 N.am      1 <0>        -0.7138
      5 C4         -0.9762    1.3419    2.8681 C.2       1 <0>         0.5919
      6 O1         -1.4551    1.6641    3.9389 O.2       1 <0>        -0.5276
      7 C5          0.4449    0.9727    2.7402 C.2       1 <0>         0.0088
      8 C6          1.0306    0.8782    1.5008 C.2       1 <0>        -0.0906
      9 C7          2.3643    0.5201    1.6930 C.ar      1 <0>        -0.1133
     10 C8          3.4175    0.2894    0.7993 C.ar      1 <0>         0.0331
     11 C9          4.6486   -0.0618    1.3556 C.ar      1 <0>        -0.1764
     12 C10         4.8242   -0.1781    2.7397 C.ar      1 <0>        -0.0658
     13 C11         3.8046    0.0451    3.6255 C.ar      1 <0>        -0.1225
     14 C12         2.5605    0.3984    3.0988 C.ar      1 <0>         0.1342
     15 N2          1.3737    0.6804    3.7077 N.pl3     1 <0>        -0.5334
     16 H1          1.2126    0.6752    4.6642 H         1 <0>         0.4315
     17 C13         5.7949   -0.3174    0.4614 C.2       1 <0>         0.5698
     18 O2          5.6597   -0.2212   -0.7430 O.2       1 <0>        -0.4953
     19 N3          6.9915   -0.6576    0.9801 N.am      1 <0>        -0.6078
     20 C14         8.0693   -0.8980    0.1393 C.2       1 <0>         0.2695
     21 N4          9.3028   -1.2429    0.4484 N.2       1 <0>        -0.5041
     22 C15        10.1789   -1.4221   -0.5445 C.2       1 <0>        -0.0110
     23 C16         9.7632   -1.2416   -1.8338 C.2       1 <0>        -0.2354
     24 S1          8.1434   -0.8282   -1.6416 S.3       1 <0>         0.2958
     25 C17        11.5696   -1.8072   -0.2542 C.2       1 <0>         0.6011
     26 O3         12.3995   -1.8055   -1.1436 O.2       1 <0>        -0.5200
     27 N5         11.9235   -2.1618    0.9970 N.am      1 <0>        -0.6092
     28 C18        13.3346   -2.3821    1.3419 C.3       1 <0>         0.1147
     29 C19        13.4762   -3.7687    1.9775 C.3       1 <0>        -0.1557
     30 C20        12.5144   -3.8829    3.1624 C.3       1 <0>         0.0225
     31 C21        11.0743   -3.7220    2.6701 C.3       1 <0>        -0.1584
     32 C22        10.9060   -2.3294    2.0436 C.3       1 <0>         0.0784
     33 N6         12.6711   -5.1994    3.7949 N.4       1 <0>        -0.3862
     34 C23        14.0529   -5.3535    4.2691 C.3       1 <0>        -0.0523
     35 C24        11.7480   -5.3093    4.9324 C.3       1 <0>        -0.0514
     36 H2          1.3983    2.8842   -0.2889 H         1 <0>         0.0634
     37 H3         -0.2143    2.8120   -1.0388 H         1 <0>         0.0689
     38 H4         -0.0519    3.2284    0.6841 H         1 <0>         0.0567
     39 H5          0.6480    0.5347   -0.5713 H         1 <0>         0.1074
     40 H6         -1.8191    1.1737   -0.3350 H         1 <0>         0.0978
     41 H7         -1.3129   -0.3094    0.4925 H         1 <0>         0.0723
     42 H8         -2.6318    1.6462    1.7733 H         1 <0>         0.4133
     43 H9          3.2835    0.3784   -0.2687 H         1 <0>         0.1535
     44 H10         5.7963   -0.4535    3.1213 H         1 <0>         0.1254
     45 H11         3.9565   -0.0482    4.6907 H         1 <0>         0.1422
     46 H12         7.0994   -0.7344    1.9410 H         1 <0>         0.4251
     47 H13        10.3308   -1.3431   -2.7470 H         1 <0>         0.2108
     48 H14        13.9437   -2.3299    0.4394 H         1 <0>         0.1124
     49 H15        13.6609   -1.6204    2.0500 H         1 <0>         0.0802
     50 H16        13.2361   -4.5337    1.2391 H         1 <0>         0.0915
     51 H17        14.4999   -3.9067    2.3253 H         1 <0>         0.1007
     52 H18        12.7390   -3.1021    3.8891 H         1 <0>         0.1381
     53 H19        10.8568   -4.4874    1.9251 H         1 <0>         0.0878
     54 H20        10.3885   -3.8267    3.5108 H         1 <0>         0.0983
     55 H21        11.0383   -1.5635    2.8079 H         1 <0>         0.0739
     56 H22         9.9122   -2.2424    1.6044 H         1 <0>         0.1674
     57 H23        14.2770   -4.5724    4.9956 H         1 <0>         0.1225
     58 H24        14.1692   -6.3304    4.7384 H         1 <0>         0.1250
     59 H25        14.7379   -5.2720    3.4251 H         1 <0>         0.1249
     60 H26        10.7227   -5.1950    4.5805 H         1 <0>         0.1244
     61 H27        11.8643   -6.2862    5.4016 H         1 <0>         0.1248
     62 H28        11.9720   -4.5282    5.6589 H         1 <0>         0.1223
     63 H29        12.4637   -5.9225    3.1224 H         1 <0>         0.4246
@<TRIPOS>BOND
     1    1    2 1
     2    1   36 1
     3    1   37 1
     4    1   38 1
     5    2    8 1
     6    2    3 1
     7    2   39 1
     8    3    4 1
     9    3   40 1
    10    3   41 1
    11    4    5 am
    12    4   42 1
    13    5    6 2
    14    5    7 1
    15    7   15 1
    16    7    8 2
    17    8    9 1
    18    9   14 ar
    19    9   10 ar
    20   10   11 ar
    21   10   43 1
    22   11   12 ar
    23   11   17 1
    24   12   13 ar
    25   12   44 1
    26   13   14 ar
    27   13   45 1
    28   14   15 1
    29   15   16 1
    30   17   18 2
    31   17   19 am
    32   19   20 1
    33   19   46 1
    34   20   24 1
    35   20   21 2
    36   21   22 1
    37   22   23 2
    38   22   25 1
    39   23   24 1
    40   23   47 1
    41   25   26 2
    42   25   27 am
    43   27   32 1
    44   27   28 1
    45   28   29 1
    46   28   48 1
    47   28   49 1
    48   29   30 1
    49   29   50 1
    50   29   51 1
    51   30   31 1
    52   30   33 1
    53   30   52 1
    54   31   32 1
    55   31   53 1
    56   31   54 1
    57   32   55 1
    58   32   56 1
    59   33   34 1
    60   33   35 1
    61   33   63 1
    62   34   57 1
    63   34   58 1
    64   34   59 1
    65   35   60 1
    66   35   61 1
    67   35   62 1
@<TRIPOS>MOLECULE
CHEMBL397642__1
   63    67     0     0     0
SMALL
USER_CHARGES

@<TRIPOS>ATOM
      1 C1          0.0440    0.3839   -0.2950 C.3       1 <0>        -0.1458
      2 C2         -0.3319   -1.0983   -0.3457 C.3       1 <0>        -0.0439
      3 C3          0.1592   -1.7065   -1.6599 C.3       1 <0>         0.1132
      4 N1          1.6044   -1.8912   -1.6834 N.am      1 <0>        -0.7137
      5 C4          2.3028   -2.2965   -0.5983 C.2       1 <0>         0.5919
      6 O1          3.4857   -2.5709   -0.6701 O.2       1 <0>        -0.5278
      7 C5          1.5665   -2.3901    0.6750 C.2       1 <0>         0.0089
      8 C6          0.3210   -1.8241    0.8019 C.2       1 <0>        -0.0906
      9 C7         -0.1201   -2.0671    2.1020 C.ar      1 <0>        -0.1133
     10 C8         -1.2982   -1.7258    2.7779 C.ar      1 <0>         0.0331
     11 C9         -1.4055   -2.1448    4.1051 C.ar      1 <0>        -0.1764
     12 C10        -0.3858   -2.8711    4.7320 C.ar      1 <0>        -0.0658
     13 C11         0.7713   -3.2115    4.0845 C.ar      1 <0>        -0.1225
     14 C12         0.9079   -2.8060    2.7552 C.ar      1 <0>         0.1342
     15 N2          1.9201   -2.9861    1.8598 N.pl3     1 <0>        -0.5334
     16 H1          2.7507   -3.4569    2.0312 H         1 <0>         0.4315
     17 C13        -2.6252   -1.8130    4.8674 C.2       1 <0>         0.5698
     18 O2         -3.5201   -1.1826    4.3384 O.2       1 <0>        -0.4953
     19 N3         -2.7468   -2.2090    6.1499 N.am      1 <0>        -0.6078
     20 C14        -3.8937   -1.8971    6.8668 C.2       1 <0>         0.2696
     21 N4         -4.1961   -2.1856    8.1162 N.2       1 <0>        -0.5040
     22 C15        -5.3740   -1.7743    8.5948 C.2       1 <0>        -0.0111
     23 C16        -6.2135   -1.0748    7.7741 C.2       1 <0>        -0.2352
     24 S1         -5.3388   -0.9944    6.3387 S.3       1 <0>         0.2956
     25 C17        -5.7614   -2.0704    9.9837 C.2       1 <0>         0.6011
     26 O3         -6.8951   -1.8418   10.3609 O.2       1 <0>        -0.5200
     27 N5         -4.8600   -2.5949   10.8375 N.am      1 <0>        -0.6092
     28 C18        -5.2714   -3.0551   12.1708 C.3       1 <0>         0.1147
     29 C19        -4.3876   -2.3754   13.2214 C.3       1 <0>        -0.1558
     30 C20        -2.9164   -2.6383   12.8919 C.3       1 <0>         0.0225
     31 C21        -2.5841   -2.0419   11.5222 C.3       1 <0>        -0.1584
     32 C22        -3.4485   -2.7230   10.4503 C.3       1 <0>         0.0785
     33 N6         -2.0668   -2.0158   13.9159 N.4       1 <0>        -0.3862
     34 C23        -2.3844   -2.5893   15.2305 C.3       1 <0>        -0.0523
     35 C24        -0.6545   -2.2681   13.5999 C.3       1 <0>        -0.0514
     36 H2          1.1265    0.4870   -0.3698 H         1 <0>         0.0566
     37 H3         -0.4291    0.9074   -1.1258 H         1 <0>         0.0688
     38 H4         -0.2976    0.8133    0.6468 H         1 <0>         0.0630
     39 H5         -1.4146   -1.2029   -0.2752 H         1 <0>         0.1076
     40 H6         -0.3223   -2.6739   -1.8025 H         1 <0>         0.0726
     41 H7         -0.1255   -1.0486   -2.4811 H         1 <0>         0.0979
     42 H8          2.0837   -1.7174   -2.5086 H         1 <0>         0.4133
     43 H9         -2.0855   -1.1653    2.2957 H         1 <0>         0.1535
     44 H10        -0.5164   -3.1726    5.7608 H         1 <0>         0.1254
     45 H11         1.5487   -3.7717    4.5826 H         1 <0>         0.1422
     46 H12        -2.0328   -2.7120    6.5720 H         1 <0>         0.4251
     47 H13        -7.1910   -0.6711    7.9930 H         1 <0>         0.2108
     48 H14        -6.3143   -2.7893   12.3434 H         1 <0>         0.1124
     49 H15        -5.1519   -4.1365   12.2371 H         1 <0>         0.0802
     50 H16        -4.5755   -1.3017   13.2153 H         1 <0>         0.0915
     51 H17        -4.6176   -2.7799   14.2071 H         1 <0>         0.1007
     52 H18        -2.7348   -3.7129   12.8738 H         1 <0>         0.1381
     53 H19        -2.7890   -0.9714   11.5322 H         1 <0>         0.0878
     54 H20        -1.5305   -2.2091   11.2985 H         1 <0>         0.0983
     55 H21        -3.1834   -3.7779   10.3792 H         1 <0>         0.0739
     56 H22        -3.2883   -2.2381    9.4873 H         1 <0>         0.1674
     57 H23        -2.2026   -3.6639   15.2117 H         1 <0>         0.1225
     58 H24        -1.7539   -2.1274   15.9903 H         1 <0>         0.1250
     59 H25        -3.4323   -2.4021   15.4650 H         1 <0>         0.1249
     60 H26        -0.4188   -1.8426   12.6244 H         1 <0>         0.1244
     61 H27        -0.0241   -1.8062   14.3597 H         1 <0>         0.1248
     62 H28        -0.4727   -3.3427   13.5811 H         1 <0>         0.1223
     63 H29        -2.2350   -1.0211   13.9333 H         1 <0>         0.4246
@<TRIPOS>BOND
     1    1    2 1
     2    1   36 1
     3    1   37 1
     4    1   38 1
     5    2    8 1
     6    2    3 1
     7    2   39 1
     8    3    4 1
     9    3   40 1
    10    3   41 1
    11    4    5 am
    12    4   42 1
    13    5    6 2
    14    5    7 1
    15    7   15 1
    16    7    8 2
    17    8    9 1
    18    9   14 ar
    19    9   10 ar
    20   10   11 ar
    21   10   43 1
    22   11   12 ar
    23   11   17 1
    24   12   13 ar
    25   12   44 1
    26   13   14 ar
    27   13   45 1
    28   14   15 1
    29   15   16 1
    30   17   18 2
    31   17   19 am
    32   19   20 1
    33   19   46 1
    34   20   24 1
    35   20   21 2
    36   21   22 1
    37   22   23 2
    38   22   25 1
    39   23   24 1
    40   23   47 1
    41   25   26 2
    42   25   27 am
    43   27   32 1
    44   27   28 1
    45   28   29 1
    46   28   48 1
    47   28   49 1
    48   29   30 1
    49   29   50 1
    50   29   51 1
    51   30   31 1
    52   30   33 1
    53   30   52 1
    54   31   32 1
    55   31   53 1
    56   31   54 1
    57   32   55 1
    58   32   56 1
    59   33   34 1
    60   33   35 1
    61   33   63 1
    62   34   57 1
    63   34   58 1
    64   34   59 1
    65   35   60 1
    66   35   61 1
    67   35   62 1
@<TRIPOS>MOLECULE
CHEMBL246301
   60    64     0     0     0
SMALL
USER_CHARGES

@<TRIPOS>ATOM
      1 C1         -0.0187    1.5258    0.0104 C.3       1 <0>        -0.1460
      2 C2          0.0021   -0.0041    0.0020 C.3       1 <0>        -0.0438
      3 C3         -1.4314   -0.5358    0.0275 C.3       1 <0>         0.1136
      4 N1         -2.0625   -0.3761    1.3312 N.am      1 <0>        -0.7140
      5 C4         -1.3906   -0.5584    2.4908 C.2       1 <0>         0.5921
      6 O1         -1.9624   -0.5504    3.5645 O.2       1 <0>        -0.5280
      7 C5          0.0651   -0.7676    2.3952 C.2       1 <0>         0.0081
      8 C6          0.7304   -0.5055    1.2219 C.2       1 <0>        -0.0908
      9 C7          2.0791   -0.7900    1.4314 C.ar      1 <0>        -0.1136
     10 C8          3.2015   -0.7066    0.5981 C.ar      1 <0>         0.0322
     11 C9          4.4259   -1.0826    1.1531 C.ar      1 <0>        -0.1754
     12 C10         4.5291   -1.5220    2.4784 C.ar      1 <0>        -0.0652
     13 C11         3.4412   -1.6080    3.3050 C.ar      1 <0>        -0.1226
     14 C12         2.2020   -1.2383    2.7781 C.ar      1 <0>         0.1344
     15 N2          0.9588   -1.2129    3.3372 N.pl3     1 <0>        -0.5336
     16 H1          0.7421   -1.4669    4.2479 H         1 <0>         0.4313
     17 C13         5.6433   -1.0156    0.3210 C.2       1 <0>         0.5700
     18 O2          5.5715   -0.6366   -0.8320 O.2       1 <0>        -0.4978
     19 N3          6.8345   -1.3745    0.8394 N.am      1 <0>        -0.6077
     20 C14         7.9792   -1.3115    0.0570 C.2       1 <0>         0.2753
     21 N4          9.2201   -1.6202    0.3746 N.2       1 <0>        -0.5087
     22 C15        10.1674   -1.4770   -0.5568 C.2       1 <0>        -0.0123
     23 C16         9.8138   -1.0186   -1.7948 C.2       1 <0>        -0.2392
     24 S1          8.1524   -0.7988   -1.6427 S.3       1 <0>         0.2886
     25 C17        11.5696   -1.8072   -0.2542 C.2       1 <0>         0.6043
     26 O3         12.4243   -1.6728   -1.1092 O.2       1 <0>        -0.5275
     27 N5         11.9064   -2.2586    0.9703 N.am      1 <0>        -0.7169
     28 C18        13.3020   -2.5872    1.2715 C.3       1 <0>         0.1356
     29 C19        13.5958   -4.0246    0.8323 C.3       1 <0>        -0.1622
     30 C20        15.0304   -4.3878    1.2215 C.3       1 <0>        -0.0028
     31 N6         15.1895   -4.2770    2.6765 N.4       1 <0>        -0.3864
     32 C21        14.9795   -2.8862    3.0960 C.3       1 <0>        -0.0013
     33 C22        13.5430   -2.4651    2.7789 C.3       1 <0>        -0.1563
     34 C23        16.5445   -4.7013    3.0532 C.3       1 <0>        -0.0473
     35 H2          1.0039    1.9031    0.0027 H         1 <0>         0.0633
     36 H3         -0.5459    1.8868   -0.8726 H         1 <0>         0.0685
     37 H4         -0.5289    1.8773    0.9072 H         1 <0>         0.0566
     38 H5          0.5084   -0.3573   -0.8963 H         1 <0>         0.1074
     39 H6         -2.0197    0.0005   -0.7171 H         1 <0>         0.0975
     40 H7         -1.4194   -1.5946   -0.2311 H         1 <0>         0.0723
     41 H8         -2.9998   -0.1295    1.3688 H         1 <0>         0.4130
     42 H9          3.1235   -0.3682   -0.4245 H         1 <0>         0.1533
     43 H10         5.4991   -1.8028    2.8613 H         1 <0>         0.1262
     44 H11         3.5377   -1.9484    4.3254 H         1 <0>         0.1424
     45 H12         6.8918   -1.6768    1.7593 H         1 <0>         0.4259
     46 H13        10.4422   -0.8451   -2.6558 H         1 <0>         0.2096
     47 H14        11.2249   -2.3658    1.6521 H         1 <0>         0.4152
     48 H15        13.9610   -1.9006    0.7402 H         1 <0>         0.1060
     49 H16        12.9015   -4.7050    1.3253 H         1 <0>         0.0910
     50 H17        13.4803   -4.1057   -0.2485 H         1 <0>         0.1177
     51 H18        15.2430   -5.4105    0.9101 H         1 <0>         0.1346
     52 H19        15.7238   -3.7070    0.7278 H         1 <0>         0.1323
     53 H20        15.1545   -2.8002    4.1684 H         1 <0>         0.1367
     54 H21        15.6740   -2.2374    2.5623 H         1 <0>         0.1327
     55 H22        13.3896   -1.4316    3.0895 H         1 <0>         0.1200
     56 H23        12.8476   -3.1132    3.3123 H         1 <0>         0.0950
     57 H24        17.2760   -4.0631    2.5575 H         1 <0>         0.1228
     58 H25        16.6637   -4.6194    4.1335 H         1 <0>         0.1245
     59 H26        16.6992   -5.7362    2.7480 H         1 <0>         0.1247
     60 H27        14.5140   -4.8708    3.1338 H         1 <0>         0.4247
@<TRIPOS>BOND
     1    1    2 1
     2    1   35 1
     3    1   36 1
     4    1   37 1
     5    2    8 1
     6    2    3 1
     7    2   38 1
     8    3    4 1
     9    3   39 1
    10    3   40 1
    11    4    5 am
    12    4   41 1
    13    5    6 2
    14    5    7 1
    15    7   15 1
    16    7    8 2
    17    8    9 1
    18    9   14 ar
    19    9   10 ar
    20   10   11 ar
    21   10   42 1
    22   11   12 ar
    23   11   17 1
    24   12   13 ar
    25   12   43 1
    26   13   14 ar
    27   13   44 1
    28   14   15 1
    29   15   16 1
    30   17   18 2
    31   17   19 am
    32   19   20 1
    33   19   45 1
    34   20   24 1
    35   20   21 2
    36   21   22 1
    37   22   23 2
    38   22   25 1
    39   23   24 1
    40   23   46 1
    41   25   26 2
    42   25   27 am
    43   27   28 1
    44   27   47 1
    45   28   33 1
    46   28   29 1
    47   28   48 1
    48   29   30 1
    49   29   49 1
    50   29   50 1
    51   30   31 1
    52   30   51 1
    53   30   52 1
    54   31   32 1
    55   31   34 1
    56   31   60 1
    57   32   33 1
    58   32   53 1
    59   32   54 1
    60   33   55 1
    61   33   56 1
    62   34   57 1
    63   34   58 1
    64   34   59 1
@<TRIPOS>MOLECULE
CHEMBL246301__1
   60    64     0     0     0
SMALL
USER_CHARGES

@<TRIPOS>ATOM
      1 C1         -0.0187    1.5258    0.0104 C.3       1 <0>        -0.1459
      2 C2          0.0021   -0.0041    0.0020 C.3       1 <0>        -0.0438
      3 C3          0.7302   -0.4995   -1.2480 C.3       1 <0>         0.1136
      4 N1          2.1721   -0.3050   -1.1676 N.am      1 <0>        -0.7139
      5 C4          2.8670   -0.4869   -0.0216 C.2       1 <0>         0.5922
      6 O1          4.0827   -0.4481   -0.0025 O.2       1 <0>        -0.5281
      7 C5          2.0852   -0.7336    1.2032 C.2       1 <0>         0.0081
      8 C6          0.7304   -0.5055    1.2219 C.2       1 <0>        -0.0909
      9 C7          0.2693   -0.8196    2.4997 C.ar      1 <0>        -0.1137
     10 C8         -1.0044   -0.7764    3.0802 C.ar      1 <0>         0.0322
     11 C9         -1.1007   -1.1733    4.4149 C.ar      1 <0>        -0.1754
     12 C10         0.0205   -1.5945    5.1401 C.ar      1 <0>        -0.0652
     13 C11         1.2717   -1.6413    4.5864 C.ar      1 <0>        -0.1225
     14 C12         1.3999   -1.2499    3.2521 C.ar      1 <0>         0.1344
     15 N2          2.4891   -1.1862    2.4346 N.pl3     1 <0>        -0.5336
     16 H1          3.3971   -1.4215    2.6815 H         1 <0>         0.4313
     17 C13        -2.4186   -1.1478    5.0793 C.2       1 <0>         0.5700
     18 O2         -3.4025   -0.7845    4.4644 O.2       1 <0>        -0.4977
     19 N3         -2.5313   -1.5274    6.3676 N.am      1 <0>        -0.6077
     20 C14        -3.7705   -1.5035    6.9923 C.2       1 <0>         0.2755
     21 N4         -4.0825   -1.8269    8.2308 N.2       1 <0>        -0.5088
     22 C15        -5.3590   -1.7214    8.6115 C.2       1 <0>        -0.0123
     23 C16        -6.2851   -1.2848    7.7063 C.2       1 <0>        -0.2392
     24 S1         -5.3544   -1.0194    6.3297 S.3       1 <0>         0.2884
     25 C17        -5.7614   -2.0704    9.9837 C.2       1 <0>         0.6042
     26 O3         -6.9263   -1.9712   10.3198 O.2       1 <0>        -0.5276
     27 N5         -4.8392   -2.5000   10.8677 N.am      1 <0>        -0.7169
     28 C18        -5.2397   -2.8473   12.2335 C.3       1 <0>         0.1356
     29 C19        -5.2543   -1.5845   13.0997 C.3       1 <0>        -0.1622
     30 C20        -5.5957   -1.9657   14.5418 C.3       1 <0>        -0.0028
     31 N6         -4.5886   -2.9018   15.0557 N.4       1 <0>        -0.3863
     32 C21        -4.6184   -4.1439   14.2743 C.3       1 <0>        -0.0013
     33 C22        -4.2395   -3.8466   12.8219 C.3       1 <0>        -0.1563
     34 C23        -4.8768   -3.2040   16.4641 C.3       1 <0>        -0.0473
     35 H2          1.0039    1.9031    0.0027 H         1 <0>         0.0566
     36 H3         -0.5459    1.8868   -0.8726 H         1 <0>         0.0685
     37 H4         -0.5289    1.8773    0.9072 H         1 <0>         0.0632
     38 H5         -1.0199   -0.3830    0.0056 H         1 <0>         0.1074
     39 H6          0.5243   -1.5619   -1.3782 H         1 <0>         0.0724
     40 H7          0.3494    0.0403   -2.1151 H         1 <0>         0.0975
     41 H8          2.6518   -0.0352   -1.9663 H         1 <0>         0.4130
     42 H9         -1.8701   -0.4515    2.5222 H         1 <0>         0.1533
     43 H10        -0.1058   -1.8919    6.1706 H         1 <0>         0.1262
     44 H11         2.1267   -1.9681    5.1596 H         1 <0>         0.1424
     45 H12        -1.7464   -1.8174    6.8582 H         1 <0>         0.4259
     46 H13        -7.3470   -1.1417    7.8417 H         1 <0>         0.2096
     47 H14        -3.9103   -2.5791   10.5997 H         1 <0>         0.4152
     48 H15        -6.2344   -3.2927   12.2195 H         1 <0>         0.1059
     49 H16        -4.2725   -1.1119   13.0708 H         1 <0>         0.0910
     50 H17        -6.0042   -0.8909   12.7193 H         1 <0>         0.1177
     51 H18        -5.6071   -1.0689   15.1612 H         1 <0>         0.1346
     52 H19        -6.5777   -2.4379   14.5695 H         1 <0>         0.1323
     53 H20        -3.9084   -4.8552   14.6963 H         1 <0>         0.1367
     54 H21        -5.6213   -4.5697   14.3078 H         1 <0>         0.1328
     55 H22        -4.2639   -4.7698   12.2430 H         1 <0>         0.1200
     56 H23        -3.2366   -3.4209   12.7873 H         1 <0>         0.0950
     57 H24        -5.8663   -3.6540   16.5441 H         1 <0>         0.1228
     58 H25        -4.1295   -3.8991   16.8468 H         1 <0>         0.1245
     59 H26        -4.8484   -2.2830   17.0465 H         1 <0>         0.1247
     60 H27        -3.6737   -2.4825   14.9842 H         1 <0>         0.4247
@<TRIPOS>BOND
     1    1    2 1
     2    1   35 1
     3    1   36 1
     4    1   37 1
     5    2    8 1
     6    2    3 1
     7    2   38 1
     8    3    4 1
     9    3   39 1
    10    3   40 1
    11    4    5 am
    12    4   41 1
    13    5    6 2
    14    5    7 1
    15    7   15 1
    16    7    8 2
    17    8    9 1
    18    9   14 ar
    19    9   10 ar
    20   10   11 ar
    21   10   42 1
    22   11   12 ar
    23   11   17 1
    24   12   13 ar
    25   12   43 1
    26   13   14 ar
    27   13   44 1
    28   14   15 1
    29   15   16 1
    30   17   18 2
    31   17   19 am
    32   19   20 1
    33   19   45 1
    34   20   24 1
    35   20   21 2
    36   21   22 1
    37   22   23 2
    38   22   25 1
    39   23   24 1
    40   23   46 1
    41   25   26 2
    42   25   27 am
    43   27   28 1
    44   27   47 1
    45   28   33 1
    46   28   29 1
    47   28   48 1
    48   29   30 1
    49   29   49 1
    50   29   50 1
    51   30   31 1
    52   30   51 1
    53   30   52 1
    54   31   32 1
    55   31   34 1
    56   31   60 1
    57   32   33 1
    58   32   53 1
    59   32   54 1
    60   33   55 1
    61   33   56 1
    62   34   57 1
    63   34   58 1
    64   34   59 1
@<TRIPOS>MOLECULE
CHEMBL246300
   57    61     0     0     0
SMALL
USER_CHARGES

@<TRIPOS>ATOM
      1 C1         -0.0187    1.5258    0.0104 C.3       1 <0>        -0.1455
      2 C2          0.0021   -0.0041    0.0020 C.3       1 <0>        -0.0438
      3 C3         -1.4314   -0.5358    0.0275 C.3       1 <0>         0.1144
      4 N1         -2.0625   -0.3761    1.3312 N.am      1 <0>        -0.7148
      5 C4         -1.3906   -0.5584    2.4908 C.2       1 <0>         0.5934
      6 O1         -1.9624   -0.5504    3.5645 O.2       1 <0>        -0.5304
      7 C5          0.0651   -0.7676    2.3952 C.2       1 <0>         0.0040
      8 C6          0.7304   -0.5055    1.2219 C.2       1 <0>        -0.0906
      9 C7          2.0791   -0.7900    1.4314 C.ar      1 <0>        -0.1144
     10 C8          3.2015   -0.7066    0.5981 C.ar      1 <0>         0.0290
     11 C9          4.4259   -1.0826    1.1531 C.ar      1 <0>        -0.1704
     12 C10         4.5291   -1.5220    2.4784 C.ar      1 <0>        -0.0628
     13 C11         3.4412   -1.6080    3.3050 C.ar      1 <0>        -0.1240
     14 C12         2.2020   -1.2383    2.7781 C.ar      1 <0>         0.1342
     15 N2          0.9588   -1.2129    3.3372 N.pl3     1 <0>        -0.5349
     16 H1          0.7421   -1.4669    4.2479 H         1 <0>         0.4304
     17 C13         5.6433   -1.0156    0.3210 C.2       1 <0>         0.5686
     18 O2          5.5715   -0.6366   -0.8320 O.2       1 <0>        -0.5006
     19 N3          6.8345   -1.3745    0.8394 N.am      1 <0>        -0.6063
     20 C14         7.9792   -1.3115    0.0570 C.2       1 <0>         0.2693
     21 N4          9.2201   -1.6202    0.3746 N.2       1 <0>        -0.5000
     22 C15        10.1674   -1.4770   -0.5568 C.2       1 <0>        -0.0003
     23 C16         9.8138   -1.0186   -1.7948 C.2       1 <0>        -0.2405
     24 S1          8.1524   -0.7988   -1.6427 S.3       1 <0>         0.2669
     25 C17        11.5696   -1.8072   -0.2542 C.2       1 <0>         0.5935
     26 O3         12.4243   -1.6728   -1.1092 O.2       1 <0>        -0.5349
     27 N5         11.9064   -2.2586    0.9703 N.am      1 <0>        -0.7110
     28 C18        13.3020   -2.5872    1.2715 C.3       1 <0>         0.1441
     29 C19        13.5967   -4.0201    0.8231 C.3       1 <0>        -0.1290
     30 C20        15.0541   -4.3633    1.1377 C.3       1 <0>        -0.1174
     31 C21        15.2932   -4.2409    2.6439 C.3       1 <0>        -0.1225
     32 C22        14.9985   -2.8080    3.0923 C.3       1 <0>        -0.1161
     33 C23        13.5411   -2.4648    2.7777 C.3       1 <0>        -0.1258
     34 H2          1.0039    1.9031    0.0027 H         1 <0>         0.0640
     35 H3         -0.5459    1.8868   -0.8726 H         1 <0>         0.0673
     36 H4         -0.5289    1.8773    0.9072 H         1 <0>         0.0559
     37 H5          0.5084   -0.3573   -0.8963 H         1 <0>         0.1074
     38 H6         -2.0197    0.0005   -0.7171 H         1 <0>         0.0963
     39 H7         -1.4194   -1.5946   -0.2311 H         1 <0>         0.0718
     40 H8         -2.9998   -0.1295    1.3688 H         1 <0>         0.4117
     41 H9          3.1235   -0.3682   -0.4245 H         1 <0>         0.1528
     42 H10         5.4991   -1.8028    2.8613 H         1 <0>         0.1288
     43 H11         3.5377   -1.9484    4.3254 H         1 <0>         0.1425
     44 H12         6.8918   -1.6768    1.7593 H         1 <0>         0.4256
     45 H13        10.4422   -0.8451   -2.6558 H         1 <0>         0.2087
     46 H14        11.2249   -2.3658    1.6521 H         1 <0>         0.4080
     47 H15        13.9600   -1.8982    0.7419 H         1 <0>         0.0890
     48 H16        12.9387   -4.7091    1.3527 H         1 <0>         0.0634
     49 H17        13.4263   -4.1073   -0.2499 H         1 <0>         0.0673
     50 H18        15.2641   -5.3841    0.8183 H         1 <0>         0.0652
     51 H19        15.7121   -3.6743    0.6082 H         1 <0>         0.0649
     52 H20        14.6352   -4.9299    3.1735 H         1 <0>         0.0626
     53 H21        16.3315   -4.4854    2.8680 H         1 <0>         0.0644
     54 H22        15.1689   -2.7208    4.1654 H         1 <0>         0.0676
     55 H23        15.6565   -2.1190    2.5628 H         1 <0>         0.0656
     56 H24        13.3311   -1.4440    3.0971 H         1 <0>         0.0687
     57 H25        12.8831   -3.1538    3.3073 H         1 <0>         0.0682
@<TRIPOS>BOND
     1    1    2 1
     2    1   34 1
     3    1   35 1
     4    1   36 1
     5    2    8 1
     6    2    3 1
     7    2   37 1
     8    3    4 1
     9    3   38 1
    10    3   39 1
    11    4    5 am
    12    4   40 1
    13    5    6 2
    14    5    7 1
    15    7   15 1
    16    7    8 2
    17    8    9 1
    18    9   14 ar
    19    9   10 ar
    20   10   11 ar
    21   10   41 1
    22   11   12 ar
    23   11   17 1
    24   12   13 ar
    25   12   42 1
    26   13   14 ar
    27   13   43 1
    28   14   15 1
    29   15   16 1
    30   17   18 2
    31   17   19 am
    32   19   20 1
    33   19   44 1
    34   20   24 1
    35   20   21 2
    36   21   22 1
    37   22   23 2
    38   22   25 1
    39   23   24 1
    40   23   45 1
    41   25   26 2
    42   25   27 am
    43   27   28 1
    44   27   46 1
    45   28   33 1
    46   28   29 1
    47   28   47 1
    48   29   30 1
    49   29   48 1
    50   29   49 1
    51   30   31 1
    52   30   50 1
    53   30   51 1
    54   31   32 1
    55   31   52 1
    56   31   53 1
    57   32   33 1
    58   32   54 1
    59   32   55 1
    60   33   56 1
    61   33   57 1
@<TRIPOS>MOLECULE
CHEMBL246300__1
   57    61     0     0     0
SMALL
USER_CHARGES

@<TRIPOS>ATOM
      1 C1         -0.0187    1.5258    0.0104 C.3       1 <0>        -0.1455
      2 C2          0.0021   -0.0041    0.0020 C.3       1 <0>        -0.0437
      3 C3          0.7302   -0.4995   -1.2480 C.3       1 <0>         0.1144
      4 N1          2.1721   -0.3050   -1.1676 N.am      1 <0>        -0.7147
      5 C4          2.8670   -0.4869   -0.0216 C.2       1 <0>         0.5934
      6 O1          4.0827   -0.4481   -0.0025 O.2       1 <0>        -0.5304
      7 C5          2.0852   -0.7336    1.2032 C.2       1 <0>         0.0040
      8 C6          0.7304   -0.5055    1.2219 C.2       1 <0>        -0.0906
      9 C7          0.2693   -0.8196    2.4997 C.ar      1 <0>        -0.1144
     10 C8         -1.0044   -0.7764    3.0802 C.ar      1 <0>         0.0291
     11 C9         -1.1007   -1.1733    4.4149 C.ar      1 <0>        -0.1704
     12 C10         0.0205   -1.5945    5.1401 C.ar      1 <0>        -0.0628
     13 C11         1.2717   -1.6413    4.5864 C.ar      1 <0>        -0.1240
     14 C12         1.3999   -1.2499    3.2521 C.ar      1 <0>         0.1342
     15 N2          2.4891   -1.1862    2.4346 N.pl3     1 <0>        -0.5349
     16 H1          3.3971   -1.4215    2.6815 H         1 <0>         0.4304
     17 C13        -2.4186   -1.1478    5.0793 C.2       1 <0>         0.5686
     18 O2         -3.4025   -0.7845    4.4644 O.2       1 <0>        -0.5006
     19 N3         -2.5313   -1.5274    6.3676 N.am      1 <0>        -0.6063
     20 C14        -3.7705   -1.5035    6.9923 C.2       1 <0>         0.2695
     21 N4         -4.0825   -1.8269    8.2308 N.2       1 <0>        -0.5001
     22 C15        -5.3590   -1.7214    8.6115 C.2       1 <0>        -0.0003
     23 C16        -6.2851   -1.2848    7.7063 C.2       1 <0>        -0.2404
     24 S1         -5.3544   -1.0194    6.3297 S.3       1 <0>         0.2667
     25 C17        -5.7614   -2.0704    9.9837 C.2       1 <0>         0.5935
     26 O3         -6.9263   -1.9712   10.3198 O.2       1 <0>        -0.5349
     27 N5         -4.8392   -2.5000   10.8677 N.am      1 <0>        -0.7110
     28 C18        -5.2397   -2.8473   12.2335 C.3       1 <0>         0.1441
     29 C19        -5.2634   -1.5832   13.0951 C.3       1 <0>        -0.1290
     30 C20        -5.6816   -1.9460   14.5214 C.3       1 <0>        -0.1174
     31 C21        -4.6814   -2.9443   15.1079 C.3       1 <0>        -0.1225
     32 C22        -4.6577   -4.2084   14.2462 C.3       1 <0>        -0.1161
     33 C23        -4.2395   -3.8456   12.8199 C.3       1 <0>        -0.1258
     34 H2          1.0039    1.9031    0.0027 H         1 <0>         0.0559
     35 H3         -0.5459    1.8868   -0.8726 H         1 <0>         0.0673
     36 H4         -0.5289    1.8773    0.9072 H         1 <0>         0.0640
     37 H5         -1.0199   -0.3830    0.0056 H         1 <0>         0.1074
     38 H6          0.5243   -1.5619   -1.3782 H         1 <0>         0.0718
     39 H7          0.3494    0.0403   -2.1151 H         1 <0>         0.0963
     40 H8          2.6518   -0.0352   -1.9663 H         1 <0>         0.4117
     41 H9         -1.8701   -0.4515    2.5222 H         1 <0>         0.1528
     42 H10        -0.1058   -1.8919    6.1706 H         1 <0>         0.1288
     43 H11         2.1267   -1.9681    5.1596 H         1 <0>         0.1425
     44 H12        -1.7464   -1.8174    6.8582 H         1 <0>         0.4256
     45 H13        -7.3470   -1.1417    7.8417 H         1 <0>         0.2087
     46 H14        -3.9103   -2.5791   10.5997 H         1 <0>         0.4080
     47 H15        -6.2333   -3.2951   12.2179 H         1 <0>         0.0890
     48 H16        -4.2697   -1.1354   13.1106 H         1 <0>         0.0634
     49 H17        -5.9759   -0.8720   12.6773 H         1 <0>         0.0673
     50 H18        -5.6985   -1.0454   15.1353 H         1 <0>         0.0653
     51 H19        -6.6752   -2.3938   14.5059 H         1 <0>         0.0649
     52 H20        -3.6878   -2.4965   15.1234 H         1 <0>         0.0626
     53 H21        -4.9794   -3.2027   16.1240 H         1 <0>         0.0644
     54 H22        -3.9452   -4.9196   14.6640 H         1 <0>         0.0676
     55 H23        -5.6514   -4.6562   14.2307 H         1 <0>         0.0656
     56 H24        -4.2226   -4.7462   12.2061 H         1 <0>         0.0688
     57 H25        -3.2458   -3.3978   12.8354 H         1 <0>         0.0682
@<TRIPOS>BOND
     1    1    2 1
     2    1   34 1
     3    1   35 1
     4    1   36 1
     5    2    8 1
     6    2    3 1
     7    2   37 1
     8    3    4 1
     9    3   38 1
    10    3   39 1
    11    4    5 am
    12    4   40 1
    13    5    6 2
    14    5    7 1
    15    7   15 1
    16    7    8 2
    17    8    9 1
    18    9   14 ar
    19    9   10 ar
    20   10   11 ar
    21   10   41 1
    22   11   12 ar
    23   11   17 1
    24   12   13 ar
    25   12   42 1
    26   13   14 ar
    27   13   43 1
    28   14   15 1
    29   15   16 1
    30   17   18 2
    31   17   19 am
    32   19   20 1
    33   19   44 1
    34   20   24 1
    35   20   21 2
    36   21   22 1
    37   22   23 2
    38   22   25 1
    39   23   24 1
    40   23   45 1
    41   25   26 2
    42   25   27 am
    43   27   28 1
    44   27   46 1
    45   28   33 1
    46   28   29 1
    47   28   47 1
    48   29   30 1
    49   29   48 1
    50   29   49 1
    51   30   31 1
    52   30   50 1
    53   30   51 1
    54   31   32 1
    55   31   52 1
    56   31   53 1
    57   32   33 1
    58   32   54 1
    59   32   55 1
    60   33   56 1
    61   33   57 1
@<TRIPOS>MOLECULE
CHEMBL469124
   47    50     0     0     0
SMALL
NO_CHARGES

@<TRIPOS>ATOM
      1 C1          0.0600    1.5042    0.0500 C.3       1 <0>        -0.1382
      2 C2          0.0789   -0.0256    0.0329 C.3       1 <0>         0.0962
      3 H1          0.5732   -0.3727   -0.8745 H         1 <0>         0.0692
      4 C3         -1.3350   -0.5459    0.0652 C.ar      1 <0>        -0.0798
      5 C4         -2.0256   -0.5969    1.2616 C.ar      1 <0>        -0.0922
      6 C5         -3.3226   -1.0741    1.2913 C.ar      1 <0>        -0.1205
      7 C6         -3.9292   -1.4999    0.1244 C.ar      1 <0>        -0.1164
      8 C7         -3.2390   -1.4481   -1.0722 C.ar      1 <0>        -0.1212
      9 C8         -1.9435   -0.9668   -1.1025 C.ar      1 <0>        -0.1065
     10 N1          0.8074   -0.5181    1.2047 N.2       1 <0>        -0.3960
     11 C9          1.8623   -1.2454    1.0500 C.2       1 <0>         0.0976
     12 C10         2.6528   -1.7903   -0.1199 C.3       1 <0>         0.0146
     13 C11         3.8327   -1.8079    0.8278 C.2       1 <0>         0.3566
     14 O1          5.0353   -1.7547    0.7288 O.2       1 <0>        -0.3616
     15 C12         2.8452   -1.9152    1.9417 C.2       1 <0>         0.3776
     16 O2          2.8462   -2.3531    3.0727 O.2       1 <0>        -0.3584
     17 N2          2.2237   -3.1217   -0.5550 N.2       1 <0>        -0.5659
     18 C13         1.6904   -3.2860   -1.7560 C.2       1 <0>         0.2910
     19 C14         1.6253   -2.1720   -2.7111 C.2       1 <0>        -0.2797
     20 C15         1.0753   -2.3850   -3.9201 C.2       1 <0>         0.1478
     21 N3          0.5852   -3.6118   -4.2568 N.pl3     1 <0>        -0.6057
     22 C16         0.6286   -4.6690   -3.3956 C.2       1 <0>         0.4151
     23 C17         1.1722   -4.5433   -2.1568 C.2       1 <0>        -0.2573
     24 N4          0.1162   -5.8895   -3.7918 N.pl3     1 <0>        -0.6355
     25 C18        -0.3221   -6.0675   -5.0967 C.ar      1 <0>         0.4212
     26 C19        -0.7358   -7.3249   -5.5405 C.ar      1 <0>        -0.2626
     27 C20        -1.1637   -7.4505   -6.8478 C.ar      1 <0>         0.1908
     28 N5         -1.1678   -6.3820   -7.6323 N.ar      1 <0>        -0.5397
     29 C21        -0.7710   -5.2085   -7.1830 C.ar      1 <0>         0.3495
     30 N6         -0.3599   -5.0422   -5.9422 N.ar      1 <0>        -0.5884
     31 H2          1.0827    1.8805    0.0266 H         1 <0>         0.0624
     32 H3         -0.4820    1.8706   -0.8218 H         1 <0>         0.0730
     33 H4         -0.4342    1.8513    0.9574 H         1 <0>         0.0716
     34 H5         -1.5516   -0.2642    2.1733 H         1 <0>         0.1297
     35 H6         -3.8618   -1.1147    2.2261 H         1 <0>         0.1239
     36 H7         -4.9423   -1.8734    0.1476 H         1 <0>         0.1216
     37 H8         -3.7128   -1.7810   -1.9838 H         1 <0>         0.1202
     38 H9         -1.4055   -0.9228   -2.0379 H         1 <0>         0.1180
     39 H10         2.7610   -1.0856   -0.9443 H         1 <0>         0.1063
     40 H11         2.0121   -1.1987   -2.4473 H         1 <0>         0.1406
     41 H12         1.0210   -1.5748   -4.6320 H         1 <0>         0.1661
     42 H13         1.2054   -5.3883   -1.4851 H         1 <0>         0.1481
     43 H14         0.0628   -6.6219   -3.1581 H         1 <0>         0.4433
     44 H15        -0.7212   -8.1780   -4.8785 H         1 <0>         0.1569
     45 H16        -1.4907   -8.4077   -7.2262 H         1 <0>         0.1789
     46 H17        -0.7872   -4.3586   -7.8491 H         1 <0>         0.2072
     47 H18         0.1934   -3.7368   -5.1354 H         1 <0>         0.4304
@<TRIPOS>BOND
     1    1    2 1
     2    1   31 1
     3    1   32 1
     4    1   33 1
     5    2    3 1
     6    2    4 1
     7    2   10 1
     8    4    9 ar
     9    4    5 ar
    10    5    6 ar
    11    5   34 1
    12    6    7 ar
    13    6   35 1
    14    7    8 ar
    15    7   36 1
    16    8    9 ar
    17    8   37 1
    18    9   38 1
    19   10   11 2
    20   11   15 1
    21   11   12 1
    22   12   13 1
    23   12   17 1
    24   12   39 1
    25   13   14 2
    26   13   15 1
    27   15   16 2
    28   17   18 2
    29   18   23 1
    30   18   19 1
    31   19   20 2
    32   19   40 1
    33   20   21 1
    34   20   41 1
    35   21   22 1
    36   21   47 1
    37   22   23 2
    38   22   24 1
    39   23   42 1
    40   24   25 1
    41   24   43 1
    42   25   30 ar
    43   25   26 ar
    44   26   27 ar
    45   26   44 1
    46   27   28 ar
    47   27   45 1
    48   28   29 ar
    49   29   30 ar
    50   29   46 1
@<TRIPOS>MOLECULE
CHEMBL469124__1
   48    51     0     0     0
SMALL
NO_CHARGES

@<TRIPOS>ATOM
      1 C1          0.0071    1.4267    0.0925 C.3       1 <0>        -0.1312
      2 C2          0.0084   -0.1032    0.0790 C.3       1 <0>         0.1032
      3 H1          0.5221   -0.4740    0.9660 H         1 <0>         0.0661
      4 C3          0.7199   -0.5940   -1.1555 C.ar      1 <0>        -0.0780
      5 C4          0.0618   -0.6129   -2.3710 C.ar      1 <0>        -0.0925
      6 C5          0.7144   -1.0632   -3.5034 C.ar      1 <0>        -0.1245
      7 C6          2.0252   -1.4941   -3.4203 C.ar      1 <0>        -0.1209
      8 C7          2.6836   -1.4743   -2.2050 C.ar      1 <0>        -0.1207
      9 C8          2.0324   -1.0201   -1.0734 C.ar      1 <0>        -0.1144
     10 N1         -1.3724   -0.5927    0.0740 N.2       1 <0>        -0.4496
     11 C9         -1.7944   -1.3436    1.0351 C.2       1 <0>         0.0470
     12 C10        -3.0913   -2.0374    1.3919 C.3       1 <0>         0.1186
     13 C11        -2.2290   -3.0116    2.1651 C.2       1 <0>         0.2679
     14 O1         -2.3150   -4.1615    2.5247 O.2       1 <0>        -0.4012
     15 C12        -1.2210   -1.9171    2.2809 C.2       1 <0>         0.2275
     16 O2         -0.3292   -1.6269    3.0498 O.2       1 <0>        -0.4257
     17 N2         -3.9791   -1.2341    2.2362 N.pl3     1 <0>        -0.6177
     18 C13        -5.1500   -0.8290    1.7684 C.2       1 <0>         0.2289
     19 C14        -5.6285   -1.2675    0.4508 C.2       1 <0>        -0.2147
     20 C15        -6.8244   -0.8310    0.0165 C.2       1 <0>         0.1416
     21 N3         -7.5822    0.0043    0.7825 N.pl3     1 <0>        -0.5895
     22 C16        -7.1699    0.4319    2.0107 C.2       1 <0>         0.3770
     23 C17        -5.9781    0.0349    2.5285 C.2       1 <0>        -0.2525
     24 N4         -7.9803    1.2784    2.7426 N.pl3     1 <0>        -0.6215
     25 C18        -9.2541    1.5868    2.2856 C.ar      1 <0>         0.3998
     26 C19       -10.1236    2.3481    3.0689 C.ar      1 <0>        -0.2642
     27 C20       -11.3804    2.6287    2.5694 C.ar      1 <0>         0.1891
     28 N5        -11.7177    2.1699    1.3724 N.ar      1 <0>        -0.5435
     29 C21       -10.8738    1.4537    0.6574 C.ar      1 <0>         0.3495
     30 N6         -9.6636    1.1667    1.0925 N.ar      1 <0>        -0.5886
     31 H2          1.0345    1.7909    0.0963 H         1 <0>         0.0659
     32 H3         -0.5066    1.7975   -0.7945 H         1 <0>         0.0651
     33 H4         -0.5075    1.7818    0.9854 H         1 <0>         0.0559
     34 H5         -0.9624   -0.2763   -2.4359 H         1 <0>         0.1285
     35 H6          0.2000   -1.0786   -4.4529 H         1 <0>         0.1215
     36 H7          2.5349   -1.8465   -4.3049 H         1 <0>         0.1208
     37 H8          3.7076   -1.8113   -2.1400 H         1 <0>         0.1222
     38 H9          2.5479   -1.0011   -0.1246 H         1 <0>         0.1200
     39 H10        -3.6014   -2.4830    0.5379 H         1 <0>         0.1365
     40 H11        -5.0304   -1.9286   -0.1589 H         1 <0>         0.1560
     41 H12        -7.1884   -1.1456   -0.9504 H         1 <0>         0.1758
     42 H13        -5.6641    0.3762    3.5039 H         1 <0>         0.1478
     43 H14        -7.6591    1.6571    3.5759 H         1 <0>         0.4415
     44 H15        -9.8212    2.7083    4.0411 H         1 <0>         0.1537
     45 H16       -12.0799    3.2144    3.1473 H         1 <0>         0.1769
     46 H17       -11.1810    1.0956   -0.3141 H         1 <0>         0.2062
     47 H18        -8.4404    0.3039    0.4439 H         1 <0>         0.4325
     48 H19        -3.7093   -0.9990    3.1378 H         1 <0>         0.4080
@<TRIPOS>BOND
     1    1    2 1
     2    1   31 1
     3    1   32 1
     4    1   33 1
     5    2    3 1
     6    2    4 1
     7    2   10 1
     8    4    9 ar
     9    4    5 ar
    10    5    6 ar
    11    5   34 1
    12    6    7 ar
    13    6   35 1
    14    7    8 ar
    15    7   36 1
    16    8    9 ar
    17    8   37 1
    18    9   38 1
    19   10   11 2
    20   11   15 1
    21   11   12 1
    22   12   13 1
    23   12   17 1
    24   12   39 1
    25   13   14 2
    26   13   15 1
    27   15   16 2
    28   17   18 2
    29   17   48 1
    30   18   23 1
    31   18   19 1
    32   19   20 2
    33   19   40 1
    34   20   21 1
    35   20   41 1
    36   21   22 1
    37   21   47 1
    38   22   23 2
    39   22   24 1
    40   23   42 1
    41   24   25 1
    42   24   43 1
    43   25   30 ar
    44   25   26 ar
    45   26   27 ar
    46   26   44 1
    47   27   28 ar
    48   27   45 1
    49   28   29 ar
    50   29   30 ar
    51   29   46 1
@<TRIPOS>MOLECULE
CHEMBL469124__2
   48    51     0     0     0
SMALL
NO_CHARGES

@<TRIPOS>ATOM
      1 C1         -0.0705    1.5586   -0.0882 C.3       1 <0>        -0.1331
      2 C2         -0.0183    0.0302   -0.0410 C.3       1 <0>         0.0909
      3 H1          0.5195   -0.2875    0.8523 H         1 <0>         0.0732
      4 C3          0.6924   -0.4862   -1.2654 C.ar      1 <0>        -0.0875
      5 C4          0.0188   -0.5756   -2.4693 C.ar      1 <0>        -0.0929
      6 C5          0.6707   -1.0494   -3.5925 C.ar      1 <0>        -0.1217
      7 C6          1.9962   -1.4333   -3.5119 C.ar      1 <0>        -0.1155
      8 C7          2.6700   -1.3430   -2.3082 C.ar      1 <0>        -0.1194
      9 C8          2.0194   -0.8653   -1.1860 C.ar      1 <0>        -0.1110
     10 N1         -1.3819   -0.5042   -0.0060 N.2       1 <0>        -0.3804
     11 C9         -1.7655   -1.2292    0.9905 C.2       1 <0>         0.0750
     12 C10        -3.0335   -1.9504    1.3938 C.3       1 <0>         0.1566
     13 C11        -2.1287   -2.8638    2.1922 C.2       1 <0>         0.2937
     14 O1         -2.1713   -4.0006    2.5985 O.2       1 <0>        -0.3658
     15 C12        -1.1564   -1.7331    2.2494 C.2       1 <0>         0.2820
     16 O2         -0.2644   -1.3829    2.9928 O.2       1 <0>        -0.3756
     17 N2         -3.9361   -1.1434    2.2186 N.pl3     1 <0>        -0.6762
     18 C13        -5.2995   -1.4235    2.2368 C.ar      1 <0>         0.0935
     19 C14        -5.8246   -2.4734    1.4799 C.ar      1 <0>        -0.1781
     20 C15        -7.1789   -2.7217    1.5228 C.ar      1 <0>         0.0864
     21 N3         -7.9814   -1.9826    2.2670 N.ar      1 <0>        -0.5702
     22 C16        -7.5253   -0.9774    3.0001 C.ar      1 <0>         0.2337
     23 C17        -6.1723   -0.6681    3.0139 C.ar      1 <0>        -0.1207
     24 N4         -8.4115   -0.2270    3.7680 N.pl3     1 <0>        -0.6207
     25 C18        -8.0720    1.0597    4.1598 C.ar      1 <0>         0.3997
     26 C19        -8.8907    1.7731    5.0377 C.ar      1 <0>        -0.2801
     27 C20        -8.5091    3.0505    5.3980 C.ar      1 <0>         0.1765
     28 N5         -7.3871    3.5541    4.9031 N.ar      1 <0>        -0.5605
     29 C21        -6.6360    2.8551    4.0764 C.ar      1 <0>         0.3335
     30 N6         -6.9591    1.6313    3.7099 N.ar      1 <0>        -0.5599
     31 H2          0.9441    1.9562   -0.1143 H         1 <0>         0.0747
     32 H3         -0.6083    1.8763   -0.9815 H         1 <0>         0.0719
     33 H4         -0.5845    1.9322    0.7974 H         1 <0>         0.0629
     34 H5         -1.0168   -0.2757   -2.5322 H         1 <0>         0.1308
     35 H6          0.1443   -1.1199   -4.5328 H         1 <0>         0.1245
     36 H7          2.5053   -1.8041   -4.3892 H         1 <0>         0.1233
     37 H8          3.7055   -1.6433   -2.2452 H         1 <0>         0.1246
     38 H9          2.5468   -0.7912   -0.2465 H         1 <0>         0.1218
     39 H10        -3.5400   -2.4465    0.5659 H         1 <0>         0.1436
     40 H11        -3.5837   -0.4140    2.7521 H         1 <0>         0.4051
     41 H12        -5.1765   -3.0832    0.8679 H         1 <0>         0.1368
     42 H13        -7.5903   -3.5320    0.9392 H         1 <0>         0.1627
     43 H14        -5.8030    0.1491    3.6157 H         1 <0>         0.1633
     44 H15        -9.2663   -0.6039    4.0290 H         1 <0>         0.4183
     45 H16        -9.7997    1.3370    5.4248 H         1 <0>         0.1413
     46 H17        -9.1175    3.6323    6.0746 H         1 <0>         0.1665
     47 H18        -5.7281    3.2958    3.6918 H         1 <0>         0.1952
     48 H19        -8.9309   -2.1808    2.2771 H         1 <0>         0.4075
@<TRIPOS>BOND
     1    1    2 1
     2    1   31 1
     3    1   32 1
     4    1   33 1
     5    2    3 1
     6    2    4 1
     7    2   10 1
     8    4    9 ar
     9    4    5 ar
    10    5    6 ar
    11    5   34 1
    12    6    7 ar
    13    6   35 1
    14    7    8 ar
    15    7   36 1
    16    8    9 ar
    17    8   37 1
    18    9   38 1
    19   10   11 2
    20   11   15 1
    21   11   12 1
    22   12   13 1
    23   12   17 1
    24   12   39 1
    25   13   14 2
    26   13   15 1
    27   15   16 2
    28   17   18 1
    29   17   40 1
    30   18   23 ar
    31   18   19 ar
    32   19   20 ar
    33   19   41 1
    34   20   21 ar
    35   20   42 1
    36   21   22 ar
    37   21   48 1
    38   22   23 ar
    39   22   24 1
    40   23   43 1
    41   24   25 1
    42   24   44 1
    43   25   30 ar
    44   25   26 ar
    45   26   27 ar
    46   26   45 1
    47   27   28 ar
    48   27   46 1
    49   28   29 ar
    50   29   30 ar
    51   29   47 1
@<TRIPOS>MOLECULE
CHEMBL469124__3
   48    51     0     0     0
SMALL
NO_CHARGES

@<TRIPOS>ATOM
      1 C1         -0.0918    1.5020    0.0582 C.3       1 <0>        -0.1385
      2 C2         -0.0627   -0.0277    0.0526 C.3       1 <0>         0.1049
      3 H1          0.4815   -0.3839    0.9273 H         1 <0>         0.0603
      4 C3          0.6241   -0.5125   -1.1982 C.ar      1 <0>        -0.0772
      5 C4         -0.0662   -0.5504   -2.3952 C.ar      1 <0>        -0.0913
      6 C5          0.5637   -0.9951   -3.5425 C.ar      1 <0>        -0.1219
      7 C6          1.8841   -1.4014   -3.4929 C.ar      1 <0>        -0.1198
      8 C7          2.5746   -1.3627   -2.2960 C.ar      1 <0>        -0.1227
      9 C8          1.9459   -0.9139   -1.1495 C.ar      1 <0>        -0.1113
     10 N1         -1.4339   -0.5424    0.0876 N.2       1 <0>        -0.4359
     11 C9         -1.8158   -1.2954    1.0638 C.2       1 <0>         0.0511
     12 C10        -1.1892   -1.8558    2.3223 C.3       1 <0>         0.0637
     13 C11        -2.5992   -1.9063    2.8696 C.2       1 <0>         0.2857
     14 O1         -3.1154   -1.8830    3.9614 O.2       1 <0>        -0.3886
     15 C12        -3.0688   -1.9927    1.4556 C.2       1 <0>         0.2942
     16 O2         -4.0419   -2.4345    0.8823 O.2       1 <0>        -0.4018
     17 N2         -0.5772   -3.1746    2.1417 N.pl3     1 <0>        -0.6206
     18 C13         0.7320   -3.3211    2.2771 C.2       1 <0>         0.2033
     19 C14         1.5744   -2.2026    2.7206 C.2       1 <0>        -0.2222
     20 C15         2.8995   -2.3975    2.8445 C.2       1 <0>         0.1409
     21 N3          3.4553   -3.6104    2.5640 N.pl3     1 <0>        -0.5915
     22 C16         2.7041   -4.6714    2.1499 C.2       1 <0>         0.3567
     23 C17         1.3577   -4.5636    2.0037 C.2       1 <0>        -0.2388
     24 N4          3.3223   -5.8772    1.8800 N.pl3     1 <0>        -0.6179
     25 C18         4.6742   -6.0396    2.1493 C.ar      1 <0>         0.3962
     26 C19         5.2849   -7.2846    1.9879 C.ar      1 <0>        -0.2668
     27 C20         6.6329   -7.3949    2.2683 C.ar      1 <0>         0.1877
     28 N5          7.2977   -6.3239    2.6784 N.ar      1 <0>        -0.5467
     29 C21         6.6920   -5.1624    2.8208 C.ar      1 <0>         0.3483
     30 N6          5.4094   -5.0108    2.5597 N.ar      1 <0>        -0.5886
     31 H2          0.9283    1.8849    0.0322 H         1 <0>         0.0672
     32 H3         -0.6361    1.8582   -0.8165 H         1 <0>         0.0685
     33 H4         -0.5886    1.8526    0.9629 H         1 <0>         0.0605
     34 H5         -1.0978   -0.2329   -2.4340 H         1 <0>         0.1298
     35 H6          0.0242   -1.0253   -4.4777 H         1 <0>         0.1224
     36 H7          2.3760   -1.7495   -4.3891 H         1 <0>         0.1201
     37 H8          3.6061   -1.6805   -2.2571 H         1 <0>         0.1185
     38 H9          2.4865   -0.8802   -0.2152 H         1 <0>         0.1165
     39 H10        -0.5402   -1.1512    2.8422 H         1 <0>         0.1309
     40 H11         1.1374   -1.2402    2.9430 H         1 <0>         0.1472
     41 H12         3.5307   -1.5836    3.1697 H         1 <0>         0.1715
     42 H13         0.7726   -5.4116    1.6797 H         1 <0>         0.1441
     43 H14         2.8116   -6.6103    1.5022 H         1 <0>         0.4399
     44 H15         4.7175   -8.1402    1.6524 H         1 <0>         0.1518
     45 H16         7.1389   -8.3423    2.1553 H         1 <0>         0.1753
     46 H17         7.2637   -4.3099    3.1568 H         1 <0>         0.2043
     47 H18         4.4138   -3.7224    2.6615 H         1 <0>         0.4315
     48 H19        -1.1309   -3.9404    1.9229 H         1 <0>         0.4090
@<TRIPOS>BOND
     1    1    2 1
     2    1   31 1
     3    1   32 1
     4    1   33 1
     5    2    3 1
     6    2    4 1
     7    2   10 1
     8    4    9 ar
     9    4    5 ar
    10    5    6 ar
    11    5   34 1
    12    6    7 ar
    13    6   35 1
    14    7    8 ar
    15    7   36 1
    16    8    9 ar
    17    8   37 1
    18    9   38 1
    19   10   11 2
    20   11   15 1
    21   11   12 1
    22   12   13 1
    23   12   17 1
    24   12   39 1
    25   13   14 2
    26   13   15 1
    27   15   16 2
    28   17   18 2
    29   17   48 1
    30   18   23 1
    31   18   19 1
    32   19   20 2
    33   19   40 1
    34   20   21 1
    35   20   41 1
    36   21   22 1
    37   21   47 1
    38   22   23 2
    39   22   24 1
    40   23   42 1
    41   24   25 1
    42   24   43 1
    43   25   30 ar
    44   25   26 ar
    45   26   27 ar
    46   26   44 1
    47   27   28 ar
    48   27   45 1
    49   28   29 ar
    50   29   30 ar
    51   29   46 1
@<TRIPOS>MOLECULE
CHEMBL469124__4
   48    51     0     0     0
SMALL
NO_CHARGES

@<TRIPOS>ATOM
      1 C1         -0.0341    1.5568    0.0936 C.3       1 <0>        -0.1385
      2 C2          0.0120    0.0280    0.0537 C.3       1 <0>         0.0957
      3 H1          0.5162   -0.3437    0.9458 H         1 <0>         0.0737
      4 C3          0.7651   -0.4201   -1.1724 C.ar      1 <0>        -0.0842
      5 C4          0.1353   -0.4361   -2.4028 C.ar      1 <0>        -0.0941
      6 C5          0.8261   -0.8471   -3.5275 C.ar      1 <0>        -0.1213
      7 C6          2.1467   -1.2416   -3.4217 C.ar      1 <0>        -0.1145
      8 C7          2.7767   -1.2247   -2.1914 C.ar      1 <0>        -0.1192
      9 C8          2.0872   -0.8096   -1.0675 C.ar      1 <0>        -0.1053
     10 N1         -1.3535   -0.5008    0.0085 N.2       1 <0>        -0.3790
     11 C9         -1.7750   -1.2806    0.9466 C.2       1 <0>         0.0731
     12 C10        -1.2053   -1.8647    2.2213 C.3       1 <0>         0.1008
     13 C11        -2.6400   -1.9421    2.6965 C.2       1 <0>         0.3069
     14 O1         -3.2097   -1.9498    3.7616 O.2       1 <0>        -0.3599
     15 C12        -3.0381   -1.9993    1.2592 C.2       1 <0>         0.3419
     16 O2         -3.9768   -2.4367    0.6282 O.2       1 <0>        -0.3596
     17 N2         -0.5707   -3.1727    2.0405 N.pl3     1 <0>        -0.6771
     18 C13         0.4167   -3.5955    2.9259 C.ar      1 <0>         0.0810
     19 C14         0.8116   -2.7892    3.9959 C.ar      1 <0>        -0.1784
     20 C15         1.7916   -3.2404    4.8523 C.ar      1 <0>         0.0835
     21 N3          2.3586   -4.4198    4.6741 N.ar      1 <0>        -0.5725
     22 C16         2.0141   -5.2162    3.6726 C.ar      1 <0>         0.2252
     23 C17         1.0308   -4.8345    2.7705 C.ar      1 <0>        -0.1152
     24 N4          2.6415   -6.4503    3.5266 N.pl3     1 <0>        -0.6196
     25 C18         2.6533   -7.0806    2.2909 C.ar      1 <0>         0.3989
     26 C19         3.1614   -8.3745    2.1594 C.ar      1 <0>        -0.2812
     27 C20         3.1505   -8.9590    0.9081 C.ar      1 <0>         0.1763
     28 N5          2.6621   -8.2783   -0.1193 N.ar      1 <0>        -0.5610
     29 C21         2.1896   -7.0583    0.0376 C.ar      1 <0>         0.3337
     30 N6          2.1758   -6.4643    1.2138 N.ar      1 <0>        -0.5596
     31 H2          0.9819    1.9502    0.1272 H         1 <0>         0.0746
     32 H3         -0.5383    1.9284   -0.7985 H         1 <0>         0.0717
     33 H4         -0.5788    1.8808    0.9804 H         1 <0>         0.0630
     34 H5         -0.8965   -0.1279   -2.4854 H         1 <0>         0.1289
     35 H6          0.3338   -0.8603   -4.4887 H         1 <0>         0.1237
     36 H7          2.6862   -1.5633   -4.3003 H         1 <0>         0.1225
     37 H8          3.8084   -1.5332   -2.1088 H         1 <0>         0.1228
     38 H9          2.5806   -0.7929   -0.1069 H         1 <0>         0.1206
     39 H10        -0.5906   -1.1664    2.7891 H         1 <0>         0.1366
     40 H11        -0.8386   -3.7441    1.3039 H         1 <0>         0.4057
     41 H12         0.3541   -1.8230    4.1497 H         1 <0>         0.1325
     42 H13         2.1010   -2.6208    5.6811 H         1 <0>         0.1602
     43 H14         0.7493   -5.4876    1.9577 H         1 <0>         0.1619
     44 H15         3.0705   -6.8696    4.2889 H         1 <0>         0.4175
     45 H16         3.5534   -8.9049    3.0146 H         1 <0>         0.1407
     46 H17         3.5356   -9.9582    0.7683 H         1 <0>         0.1661
     47 H18         1.7991   -6.5321   -0.8208 H         1 <0>         0.1941
     48 H19         3.0463   -4.7109    5.2932 H         1 <0>         0.4064
@<TRIPOS>BOND
     1    1    2 1
     2    1   31 1
     3    1   32 1
     4    1   33 1
     5    2    3 1
     6    2    4 1
     7    2   10 1
     8    4    9 ar
     9    4    5 ar
    10    5    6 ar
    11    5   34 1
    12    6    7 ar
    13    6   35 1
    14    7    8 ar
    15    7   36 1
    16    8    9 ar
    17    8   37 1
    18    9   38 1
    19   10   11 2
    20   11   15 1
    21   11   12 1
    22   12   13 1
    23   12   17 1
    24   12   39 1
    25   13   14 2
    26   13   15 1
    27   15   16 2
    28   17   18 1
    29   17   40 1
    30   18   23 ar
    31   18   19 ar
    32   19   20 ar
    33   19   41 1
    34   20   21 ar
    35   20   42 1
    36   21   22 ar
    37   21   48 1
    38   22   23 ar
    39   22   24 1
    40   23   43 1
    41   24   25 1
    42   24   44 1
    43   25   30 ar
    44   25   26 ar
    45   26   27 ar
    46   26   45 1
    47   27   28 ar
    48   27   46 1
    49   28   29 ar
    50   29   30 ar
    51   29   47 1
@<TRIPOS>MOLECULE
CHEMBL469124__5
   47    50     0     0     0
SMALL
NO_CHARGES

@<TRIPOS>ATOM
      1 C1          0.0419    1.4278   -0.0526 C.3       1 <0>        -0.1324
      2 C2          0.0680   -0.1019   -0.0416 C.3       1 <0>         0.0909
      3 H1          0.5886   -0.4628   -0.9286 H         1 <0>         0.0719
      4 C3         -1.3440   -0.6284   -0.0389 C.ar      1 <0>        -0.0858
      5 C4         -2.0671   -0.6613    1.1388 C.ar      1 <0>        -0.0930
      6 C5         -3.3623   -1.1443    1.1414 C.ar      1 <0>        -0.1220
      7 C6         -3.9346   -1.5938   -0.0339 C.ar      1 <0>        -0.1163
      8 C7         -3.2119   -1.5601   -1.2118 C.ar      1 <0>        -0.1193
      9 C8         -1.9181   -1.0731   -1.2151 C.ar      1 <0>        -0.1115
     10 N1          0.7660   -0.5698    1.1585 N.2       1 <0>        -0.3934
     11 C9          1.8280   -1.2946    1.0460 C.2       1 <0>         0.1006
     12 C10         2.8024   -1.9608    1.9932 C.3       1 <0>         0.0715
     13 C11         3.0654   -2.9327    0.8633 C.2       1 <0>         0.3479
     14 O1          3.4486   -4.0737    0.7621 O.2       1 <0>        -0.3636
     15 C12         2.6344   -1.8520   -0.0714 C.2       1 <0>         0.3236
     16 O2          2.8472   -1.5603   -1.2292 O.2       1 <0>        -0.3702
     17 N2          3.9568   -1.1271    2.3372 N.2       1 <0>        -0.5744
     18 C13         4.1268   -0.7132    3.5837 C.2       1 <0>         0.2966
     19 C14         3.2361   -1.1704    4.6584 C.2       1 <0>        -0.2708
     20 C15         3.4467   -0.7241    5.9097 C.2       1 <0>         0.1441
     21 N3          4.4677    0.1380    6.1801 N.pl3     1 <0>        -0.6061
     22 C16         5.3143    0.5836    5.2075 C.2       1 <0>         0.4162
     23 C17         5.1770    0.1786    3.9179 C.2       1 <0>        -0.2608
     24 N4          6.3318    1.4571    5.5405 N.pl3     1 <0>        -0.6357
     25 C18         6.5648    1.7761    6.8710 C.ar      1 <0>         0.4210
     26 C19         7.6584    2.5664    7.2298 C.ar      1 <0>        -0.2628
     27 C20         7.8470    2.8564    8.5670 C.ar      1 <0>         0.1904
     28 N5          6.9907    2.3791    9.4592 N.ar      1 <0>        -0.5400
     29 C21         5.9679    1.6358    9.0882 C.ar      1 <0>         0.3498
     30 N6          5.7471    1.3387    7.8236 N.ar      1 <0>        -0.5881
     31 H2          1.0632    1.8086   -0.0546 H         1 <0>         0.0626
     32 H3         -0.4774    1.7759   -0.9455 H         1 <0>         0.0737
     33 H4         -0.4787    1.7887    0.8344 H         1 <0>         0.0702
     34 H5         -1.6199   -0.3101    2.0570 H         1 <0>         0.1299
     35 H6         -3.9270   -1.1707    2.0616 H         1 <0>         0.1240
     36 H7         -4.9463   -1.9718   -0.0318 H         1 <0>         0.1231
     37 H8         -3.6589   -1.9116   -2.1299 H         1 <0>         0.1245
     38 H9         -1.3548   -1.0433   -2.1360 H         1 <0>         0.1220
     39 H10         2.3291   -2.4154    2.8636 H         1 <0>         0.1146
     40 H11         2.4259   -1.8528    4.4475 H         1 <0>         0.1456
     41 H12         2.7993   -1.0523    6.7095 H         1 <0>         0.1670
     42 H13         5.8560    0.5343    3.1571 H         1 <0>         0.1483
     43 H14         6.8832    1.8473    4.8444 H         1 <0>         0.4432
     44 H15         8.3400    2.9412    6.4806 H         1 <0>         0.1568
     45 H16         8.6822    3.4645    8.8818 H         1 <0>         0.1787
     46 H17         5.2893    1.2631    9.8413 H         1 <0>         0.2075
     47 H18         4.5959    0.4441    7.0915 H         1 <0>         0.4302
@<TRIPOS>BOND
     1    1    2 1
     2    1   31 1
     3    1   32 1
     4    1   33 1
     5    2    3 1
     6    2    4 1
     7    2   10 1
     8    4    9 ar
     9    4    5 ar
    10    5    6 ar
    11    5   34 1
    12    6    7 ar
    13    6   35 1
    14    7    8 ar
    15    7   36 1
    16    8    9 ar
    17    8   37 1
    18    9   38 1
    19   10   11 2
    20   11   15 1
    21   11   12 1
    22   12   13 1
    23   12   17 1
    24   12   39 1
    25   13   14 2
    26   13   15 1
    27   15   16 2
    28   17   18 2
    29   18   23 1
    30   18   19 1
    31   19   20 2
    32   19   40 1
    33   20   21 1
    34   20   41 1
    35   21   22 1
    36   21   47 1
    37   22   23 2
    38   22   24 1
    39   23   42 1
    40   24   25 1
    41   24   43 1
    42   25   30 ar
    43   25   26 ar
    44   26   27 ar
    45   26   44 1
    46   27   28 ar
    47   27   45 1
    48   28   29 ar
    49   29   30 ar
    50   29   46 1
@<TRIPOS>MOLECULE
CHEMBL376384
   57    61     0     0     0
SMALL
USER_CHARGES

@<TRIPOS>ATOM
      1 C1         -1.2463    1.1556   -0.1451 C.3       1 <0>         0.0695
      2 N1         -0.5788   -0.1463   -0.0710 N.am      1 <0>        -0.6071
      3 C2         -0.4439   -0.8280    1.2187 C.3       1 <0>         0.1563
      4 C3         -1.6426   -1.7122    1.4473 C.ar      1 <0>        -0.1114
      5 C4         -2.7608   -1.2092    2.0857 C.ar      1 <0>        -0.1072
      6 C5         -3.8603   -2.0203    2.2955 C.ar      1 <0>        -0.1251
      7 C6         -3.8419   -3.3343    1.8664 C.ar      1 <0>        -0.1152
      8 C7         -2.7240   -3.8370    1.2272 C.ar      1 <0>        -0.1234
      9 C8         -1.6261   -3.0247    1.0137 C.ar      1 <0>        -0.0934
     10 C9         -0.0887   -0.7170   -1.1894 C.2       1 <0>         0.5602
     11 O1          0.3697   -1.8421   -1.1469 O.2       1 <0>        -0.5262
     12 C10        -0.1087    0.0250   -2.4672 C.ar      1 <0>        -0.1202
     13 C11         0.0891    1.4076   -2.4757 C.ar      1 <0>        -0.0971
     14 C12         0.0702    2.0981   -3.6669 C.ar      1 <0>        -0.0854
     15 C13        -0.1467    1.4173   -4.8648 C.ar      1 <0>        -0.0278
     16 C14        -0.3443    0.0365   -4.8575 C.ar      1 <0>        -0.1050
     17 C15        -0.3197   -0.6567   -3.6679 C.ar      1 <0>        -0.0644
     18 C16        -0.1677    2.1621   -6.1471 C.ar      1 <0>         0.1769
     19 C17        -0.3902    1.4776   -7.3369 C.ar      1 <0>        -0.1490
     20 C18        -0.4067    2.1957   -8.5365 C.ar      1 <0>         0.0440
     21 C19        -0.1971    3.5799   -8.4833 C.ar      1 <0>        -0.1839
     22 C20         0.0166    4.1819   -7.2604 C.ar      1 <0>         0.1204
     23 N2          0.0206    3.4764   -6.1469 N.ar      1 <0>        -0.4803
     24 C21        -0.6388    1.5124   -9.8267 C.2       1 <0>         0.0144
     25 C22        -0.8583    0.1767   -9.9922 C.2       1 <0>        -0.0768
     26 C23        -1.0275   -0.0374  -11.3660 C.2       1 <0>        -0.2321
     27 C24        -0.9013    1.1951  -11.9988 C.2       1 <0>         0.0792
     28 N3         -0.6755    2.1195  -11.0638 N.pl3     1 <0>        -0.5113
     29 H1         -0.5541    3.0677  -11.2285 H         1 <0>         0.4197
     30 C25        -1.0261    1.3162  -13.4960 C.3       1 <0>        -0.0707
     31 C26        -0.5730    0.0037  -14.1362 C.3       1 <0>         0.1238
     32 N4         -1.1409   -1.1697  -13.4868 N.am      1 <0>        -0.7360
     33 C27        -1.2940   -1.2596  -12.1445 C.2       1 <0>         0.5972
     34 O2         -1.6341   -2.2970  -11.6084 O.2       1 <0>        -0.5316
     35 H2         -0.5280    1.9453    0.0751 H         1 <0>         0.0628
     36 H3         -1.6497    1.3006   -1.1473 H         1 <0>         0.0819
     37 H4         -2.0580    1.1897    0.5816 H         1 <0>         0.0718
     38 H5          0.4608   -1.4360    1.2154 H         1 <0>         0.0937
     39 H6         -0.3811   -0.0876    2.0162 H         1 <0>         0.0888
     40 H7         -2.7752   -0.1827    2.4209 H         1 <0>         0.1196
     41 H8         -4.7337   -1.6275    2.7949 H         1 <0>         0.1218
     42 H9         -4.7007   -3.9682    2.0309 H         1 <0>         0.1213
     43 H10        -2.7095   -4.8637    0.8923 H         1 <0>         0.1223
     44 H11        -0.7542   -3.4164    0.5110 H         1 <0>         0.1291
     45 H12         0.2564    1.9351   -1.5482 H         1 <0>         0.1383
     46 H13         0.2231    3.1672   -3.6737 H         1 <0>         0.1427
     47 H14        -0.5125   -0.4896   -5.7855 H         1 <0>         0.1354
     48 H15        -0.4683   -1.7264   -3.6629 H         1 <0>         0.1374
     49 H16        -0.5472    0.4091   -7.3345 H         1 <0>         0.1446
     50 H17        -0.2023    4.1686   -9.3888 H         1 <0>         0.1296
     51 H18         0.1790    5.2486   -7.2143 H         1 <0>         0.1625
     52 H19        -0.8946   -0.5715   -9.2142 H         1 <0>         0.1536
     53 H20        -2.0650    1.5125  -13.7613 H         1 <0>         0.0968
     54 H21        -0.3961    2.1321  -13.8503 H         1 <0>         0.0987
     55 H22        -0.8706    0.0033  -15.1848 H         1 <0>         0.0947
     56 H23         0.5140   -0.0565  -14.0820 H         1 <0>         0.0676
     57 H24        -1.4207   -1.9170  -14.0382 H         1 <0>         0.4041
@<TRIPOS>BOND
     1    1    2 1
     2    1   35 1
     3    1   36 1
     4    1   37 1
     5    2    3 1
     6    2   10 am
     7    3    4 1
     8    3   38 1
     9    3   39 1
    10    4    9 ar
    11    4    5 ar
    12    5    6 ar
    13    5   40 1
    14    6    7 ar
    15    6   41 1
    16    7    8 ar
    17    7   42 1
    18    8    9 ar
    19    8   43 1
    20    9   44 1
    21   10   11 2
    22   10   12 1
    23   12   17 ar
    24   12   13 ar
    25   13   14 ar
    26   13   45 1
    27   14   15 ar
    28   14   46 1
    29   15   16 ar
    30   15   18 1
    31   16   17 ar
    32   16   47 1
    33   17   48 1
    34   18   23 ar
    35   18   19 ar
    36   19   20 ar
    37   19   49 1
    38   20   21 ar
    39   20   24 1
    40   21   22 ar
    41   21   50 1
    42   22   23 ar
    43   22   51 1
    44   24   28 1
    45   24   25 2
    46   25   26 1
    47   25   52 1
    48   26   33 1
    49   26   27 2
    50   27   28 1
    51   27   30 1
    52   28   29 1
    53   30   31 1
    54   30   53 1
    55   30   54 1
    56   31   32 1
    57   31   55 1
    58   31   56 1
    59   32   33 am
    60   32   57 1
    61   33   34 2
@<TRIPOS>MOLECULE
CHEMBL610780
   43    46     0     0     0
SMALL
USER_CHARGES

@<TRIPOS>ATOM
      1 C1         -0.0173    1.4248    0.0099 C.3       1 <0>         0.0249
      2 O1          0.0021   -0.0041    0.0020 O.3       1 <0>        -0.3147
      3 C2         -1.2007   -0.6377    0.0101 C.ar      1 <0>         0.1181
      4 C3         -2.3742    0.1024    0.0195 C.ar      1 <0>        -0.1831
      5 C4         -3.5960   -0.5405    0.0272 C.ar      1 <0>        -0.0770
      6 C5         -3.6502   -1.9280    0.0256 C.ar      1 <0>         0.1290
      7 C6         -2.4753   -2.6681    0.0162 C.ar      1 <0>        -0.1034
      8 C7         -1.2541   -2.0241    0.0032 C.ar      1 <0>        -0.1227
      9 N1         -4.8905   -2.5814    0.0340 N.pl3     1 <0>        -0.3100
     10 C8         -5.0799   -3.9187    0.0389 C.2       1 <0>         0.0963
     11 C9         -6.4248   -4.1471    0.0465 C.2       1 <0>        -0.2306
     12 C10        -7.0701   -2.8885    0.0461 C.2       1 <0>         0.3665
     13 N2         -6.1447   -1.9594    0.0447 N.2       1 <0>        -0.3482
     14 N3         -8.4508   -2.6730    0.0523 N.pl3     1 <0>        -0.8366
     15 C11        -7.0895   -5.4739    0.0531 C.ar      1 <0>        -0.0059
     16 C12        -6.7093   -6.4498   -0.8677 C.ar      1 <0>        -0.0826
     17 C13        -7.3246   -7.6872   -0.8667 C.ar      1 <0>        -0.1178
     18 C14        -8.3199   -7.9642    0.0465 C.ar      1 <0>        -0.0562
     19 C15        -8.7079   -6.9933    0.9745 C.ar      1 <0>        -0.1321
     20 C16        -8.0894   -5.7480    0.9822 C.ar      1 <0>        -0.0531
     21 C17        -9.7765   -7.3213    1.9434 C.2       1 <0>         0.5650
     22 O2        -10.3601   -6.4372    2.5395 O.2       1 <0>        -0.5335
     23 N4        -10.0942   -8.6140    2.1566 N.am      1 <0>        -0.7268
     24 C18        -9.3643   -9.6910    1.4934 C.3       1 <0>         0.1126
     25 C19        -9.0021   -9.3067    0.0608 C.3       1 <0>        -0.1029
     26 H1          1.0053    1.8021    0.0021 H         1 <0>         0.1028
     27 H2         -0.5445    1.7859   -0.8732 H         1 <0>         0.0574
     28 H3         -0.5275    1.7763    0.9067 H         1 <0>         0.0575
     29 H4         -2.3320    1.1815    0.0211 H         1 <0>         0.1376
     30 H5         -4.5095    0.0357    0.0349 H         1 <0>         0.1414
     31 H6         -2.5168   -3.7473    0.0150 H         1 <0>         0.1375
     32 H7         -0.3403   -2.5995   -0.0083 H         1 <0>         0.1423
     33 H8         -4.3057   -4.6718    0.0367 H         1 <0>         0.1806
     34 H9         -9.0595   -3.4282    0.0573 H         1 <0>         0.4123
     35 H10        -8.8005   -1.7682    0.0515 H         1 <0>         0.4064
     36 H11        -5.9306   -6.2375   -1.5853 H         1 <0>         0.1291
     37 H12        -7.0256   -8.4385   -1.5827 H         1 <0>         0.1322
     38 H13        -8.3855   -4.9976    1.7003 H         1 <0>         0.1348
     39 H14       -10.8203   -8.8326    2.7615 H         1 <0>         0.4062
     40 H15        -8.4506   -9.8996    2.0498 H         1 <0>         0.0688
     41 H16        -9.9849  -10.5870    1.4775 H         1 <0>         0.0909
     42 H17        -9.9094   -9.2581   -0.5414 H         1 <0>         0.0886
     43 H18        -8.3318  -10.0579   -0.3570 H         1 <0>         0.0984
@<TRIPOS>BOND
     1    1    2 1
     2    1   26 1
     3    1   27 1
     4    1   28 1
     5    2    3 1
     6    3    8 ar
     7    3    4 ar
     8    4    5 ar
     9    4   29 1
    10    5    6 ar
    11    5   30 1
    12    6    7 ar
    13    6    9 1
    14    7    8 ar
    15    7   31 1
    16    8   32 1
    17    9   13 1
    18    9   10 1
    19   10   11 2
    20   10   33 1
    21   11   12 1
    22   11   15 1
    23   12   13 2
    24   12   14 1
    25   14   34 1
    26   14   35 1
    27   15   20 ar
    28   15   16 ar
    29   16   17 ar
    30   16   36 1
    31   17   18 ar
    32   17   37 1
    33   18   25 1
    34   18   19 ar
    35   19   20 ar
    36   19   21 1
    37   20   38 1
    38   21   22 2
    39   21   23 am
    40   23   24 1
    41   23   39 1
    42   24   25 1
    43   24   40 1
    44   24   41 1
    45   25   42 1
    46   25   43 1
@<TRIPOS>MOLECULE
CHEMBL388530
   54    58     0     0     0
SMALL
USER_CHARGES

@<TRIPOS>ATOM
      1 C1         -0.0167    1.3781    0.0096 C.ar      1 <0>        -0.1105
      2 C2          1.1709    2.0855    0.0021 C.ar      1 <0>        -0.1214
      3 C3          2.3773    1.4107   -0.0130 C.ar      1 <0>        -0.1003
      4 C4          2.3960    0.0285   -0.0201 C.ar      1 <0>        -0.1128
      5 C5          1.2084   -0.6789   -0.0117 C.ar      1 <0>        -0.1003
      6 C6          0.0021   -0.0041    0.0020 C.ar      1 <0>        -0.1214
      7 C7          3.7112   -0.7071   -0.0376 C.3       1 <0>         0.1614
      8 N1          4.1518   -0.9524    1.3379 N.am      1 <0>        -0.7224
      9 C8          5.3108   -1.6005    1.5688 C.2       1 <0>         0.5579
     10 O1          5.9904   -1.9815    0.6357 O.2       1 <0>        -0.5319
     11 C9          5.7552   -1.8479    2.9563 C.ar      1 <0>        -0.1243
     12 C10         4.9718   -1.4154    4.0287 C.ar      1 <0>        -0.0908
     13 C11         5.3869   -1.6464    5.3212 C.ar      1 <0>        -0.0850
     14 C12         6.5895   -2.3116    5.5596 C.ar      1 <0>        -0.0250
     15 C13         7.3726   -2.7440    4.4894 C.ar      1 <0>        -0.1061
     16 C14         6.9562   -2.5195    3.1961 C.ar      1 <0>        -0.0595
     17 C15         7.0361   -2.5590    6.9521 C.ar      1 <0>         0.1759
     18 C16         8.2388   -3.2178    7.1823 C.ar      1 <0>        -0.1484
     19 C17         8.6443   -3.4426    8.5013 C.ar      1 <0>         0.0441
     20 C18         7.8147   -2.9907    9.5359 C.ar      1 <0>        -0.1834
     21 C19         6.6367   -2.3452    9.2210 C.ar      1 <0>         0.1203
     22 N2          6.2860   -2.1444    7.9662 N.ar      1 <0>        -0.4803
     23 C20         9.9144   -4.1390    8.7965 C.2       1 <0>         0.0141
     24 C21        10.7962   -4.6135    7.8706 C.2       1 <0>        -0.0766
     25 C22        11.8530   -5.1964    8.5813 C.2       1 <0>        -0.2321
     26 C23        11.5720   -5.0556    9.9366 C.2       1 <0>         0.0792
     27 N3         10.4091   -4.4125   10.0537 N.pl3     1 <0>        -0.5113
     28 H1          9.9788   -4.1769   10.8906 H         1 <0>         0.4197
     29 C24        12.5161   -5.5860   10.9850 C.3       1 <0>        -0.0707
     30 C25        13.2615   -6.7919   10.4124 C.3       1 <0>         0.1238
     31 N4         13.7785   -6.5546    9.0716 N.am      1 <0>        -0.7361
     32 C26        13.0880   -5.8639    8.1339 C.2       1 <0>         0.5971
     33 O2         13.4677   -5.7981    6.9803 O.2       1 <0>        -0.5315
     34 H2         -0.9591    1.9053    0.0259 H         1 <0>         0.1241
     35 H3          1.1563    3.1654    0.0076 H         1 <0>         0.1251
     36 H4          3.3051    1.9634   -0.0196 H         1 <0>         0.1246
     37 H5          1.2231   -1.7588   -0.0176 H         1 <0>         0.1246
     38 H6         -0.9258   -0.5567    0.0082 H         1 <0>         0.1251
     39 H7          3.5884   -1.6586   -0.5549 H         1 <0>         0.0793
     40 H8          4.4573   -0.1052   -0.5563 H         1 <0>         0.0794
     41 H9          3.6095   -0.6484    2.0824 H         1 <0>         0.4019
     42 H10         4.0410   -0.8996    3.8443 H         1 <0>         0.1291
     43 H11         4.7814   -1.3120    6.1506 H         1 <0>         0.1429
     44 H12         8.3037   -3.2587    4.6751 H         1 <0>         0.1364
     45 H13         7.5605   -2.8582    2.3676 H         1 <0>         0.1428
     46 H14         8.8493   -3.5507    6.3559 H         1 <0>         0.1451
     47 H15         8.0938   -3.1461   10.5676 H         1 <0>         0.1298
     48 H16         5.9936   -1.9954   10.0150 H         1 <0>         0.1626
     49 H17        10.6985   -4.5517    6.7968 H         1 <0>         0.1539
     50 H18        13.2315   -4.8103   11.2584 H         1 <0>         0.0968
     51 H19        11.9503   -5.8906   11.8655 H         1 <0>         0.0987
     52 H20        14.0945   -7.0355   11.0719 H         1 <0>         0.0947
     53 H21        12.5811   -7.6428   10.3808 H         1 <0>         0.0676
     54 H22        14.6529   -6.9057    8.8412 H         1 <0>         0.4042
@<TRIPOS>BOND
     1    1    6 ar
     2    1    2 ar
     3    1   34 1
     4    2    3 ar
     5    2   35 1
     6    3    4 ar
     7    3   36 1
     8    4    5 ar
     9    4    7 1
    10    5    6 ar
    11    5   37 1
    12    6   38 1
    13    7    8 1
    14    7   39 1
    15    7   40 1
    16    8    9 am
    17    8   41 1
    18    9   10 2
    19    9   11 1
    20   11   16 ar
    21   11   12 ar
    22   12   13 ar
    23   12   42 1
    24   13   14 ar
    25   13   43 1
    26   14   15 ar
    27   14   17 1
    28   15   16 ar
    29   15   44 1
    30   16   45 1
    31   17   22 ar
    32   17   18 ar
    33   18   19 ar
    34   18   46 1
    35   19   20 ar
    36   19   23 1
    37   20   21 ar
    38   20   47 1
    39   21   22 ar
    40   21   48 1
    41   23   27 1
    42   23   24 2
    43   24   25 1
    44   24   49 1
    45   25   32 1
    46   25   26 2
    47   26   27 1
    48   26   29 1
    49   27   28 1
    50   29   30 1
    51   29   50 1
    52   29   51 1
    53   30   31 1
    54   30   52 1
    55   30   53 1
    56   31   32 am
    57   31   54 1
    58   32   33 2
@<TRIPOS>MOLECULE
CHEMBL226321
   57    61     0     0     0
SMALL
USER_CHARGES

@<TRIPOS>ATOM
      1 C1         -0.0167    1.3781    0.0096 C.ar      1 <0>        -0.1204
      2 C2          1.1709    2.0855    0.0021 C.ar      1 <0>        -0.1180
      3 C3          2.3773    1.4107   -0.0130 C.ar      1 <0>        -0.1137
      4 C4          2.3960    0.0285   -0.0201 C.ar      1 <0>        -0.0848
      5 C5          1.2084   -0.6789   -0.0117 C.ar      1 <0>        -0.1136
      6 C6          0.0021   -0.0041    0.0020 C.ar      1 <0>        -0.1180
      7 C7          3.7112   -0.7071   -0.0376 C.3       1 <0>        -0.0919
      8 C8          4.1714   -0.9633    1.3989 C.3       1 <0>         0.1245
      9 N1          5.4498   -1.6784    1.3820 N.am      1 <0>        -0.7279
     10 C9          6.0502   -2.0132    2.5413 C.2       1 <0>         0.5577
     11 O1          5.5308   -1.7218    3.6010 O.2       1 <0>        -0.5310
     12 C10         7.3398   -2.7346    2.5241 C.ar      1 <0>        -0.1245
     13 C11         7.9398   -3.0647    1.3068 C.ar      1 <0>        -0.0914
     14 C12         9.1415   -3.7369    1.2919 C.ar      1 <0>        -0.0851
     15 C13         9.7593   -4.0887    2.4920 C.ar      1 <0>        -0.0251
     16 C14         9.1610   -3.7595    3.7082 C.ar      1 <0>        -0.1059
     17 C15         7.9624   -3.0818    3.7253 C.ar      1 <0>        -0.0598
     18 C16        11.0530   -4.8135    2.4748 C.ar      1 <0>         0.1758
     19 C17        11.6604   -5.1659    3.6750 C.ar      1 <0>        -0.1485
     20 C18        12.8799   -5.8490    3.6401 C.ar      1 <0>         0.0442
     21 C19        13.4363   -6.1483    2.3896 C.ar      1 <0>        -0.1834
     22 C20        12.7683   -5.7624    1.2458 C.ar      1 <0>         0.1203
     23 N2         11.6169   -5.1241    1.3136 N.ar      1 <0>        -0.4803
     24 C21        13.5641   -6.2445    4.8893 C.2       1 <0>         0.0140
     25 C22        13.1112   -6.0096    6.1540 C.2       1 <0>        -0.0766
     26 C23        14.0621   -6.5483    7.0299 C.2       1 <0>        -0.2321
     27 C24        15.0777   -7.0996    6.2552 C.2       1 <0>         0.0793
     28 N3         14.7642   -6.9178    4.9713 N.pl3     1 <0>        -0.5113
     29 H1         15.2971   -7.2108    4.2156 H         1 <0>         0.4197
     30 C25        16.2703   -7.7629    6.8952 C.3       1 <0>        -0.0707
     31 C26        16.5231   -7.1147    8.2567 C.3       1 <0>         0.1238
     32 N4         15.3090   -6.9624    9.0465 N.am      1 <0>        -0.7361
     33 C27        14.1225   -6.6045    8.5010 C.2       1 <0>         0.5971
     34 O2         13.1556   -6.3423    9.1905 O.2       1 <0>        -0.5313
     35 H2         -0.9591    1.9053    0.0259 H         1 <0>         0.1223
     36 H3          1.1563    3.1654    0.0076 H         1 <0>         0.1231
     37 H4          3.3051    1.9634   -0.0196 H         1 <0>         0.1224
     38 H5          1.2231   -1.7588   -0.0176 H         1 <0>         0.1224
     39 H6         -0.9258   -0.5567    0.0082 H         1 <0>         0.1231
     40 H7          3.5884   -1.6586   -0.5549 H         1 <0>         0.0807
     41 H8          4.4573   -0.1052   -0.5563 H         1 <0>         0.0807
     42 H9          4.2941   -0.0118    1.9163 H         1 <0>         0.0723
     43 H10         3.4252   -1.5652    1.9176 H         1 <0>         0.0723
     44 H11         5.8643   -1.9110    0.5363 H         1 <0>         0.4008
     45 H12         7.4613   -2.7931    0.3775 H         1 <0>         0.1295
     46 H13         9.6056   -3.9923    0.3508 H         1 <0>         0.1431
     47 H14         9.6400   -4.0326    4.6369 H         1 <0>         0.1364
     48 H15         7.5014   -2.8231    4.6671 H         1 <0>         0.1426
     49 H16        11.1981   -4.9159    4.6185 H         1 <0>         0.1450
     50 H17        14.3771   -6.6744    2.3218 H         1 <0>         0.1298
     51 H18        13.1934   -5.9906    0.2795 H         1 <0>         0.1627
     52 H19        12.1960   -5.5055    6.4274 H         1 <0>         0.1538
     53 H20        16.0693   -8.8259    7.0283 H         1 <0>         0.0968
     54 H21        17.1461   -7.6315    6.2597 H         1 <0>         0.0987
     55 H22        17.2292   -7.7309    8.8133 H         1 <0>         0.0947
     56 H23        16.9661   -6.1310    8.1005 H         1 <0>         0.0676
     57 H24        15.3521   -7.1240   10.0020 H         1 <0>         0.4042
@<TRIPOS>BOND
     1    1    6 ar
     2    1    2 ar
     3    1   35 1
     4    2    3 ar
     5    2   36 1
     6    3    4 ar
     7    3   37 1
     8    4    5 ar
     9    4    7 1
    10    5    6 ar
    11    5   38 1
    12    6   39 1
    13    7    8 1
    14    7   40 1
    15    7   41 1
    16    8    9 1
    17    8   42 1
    18    8   43 1
    19    9   10 am
    20    9   44 1
    21   10   11 2
    22   10   12 1
    23   12   17 ar
    24   12   13 ar
    25   13   14 ar
    26   13   45 1
    27   14   15 ar
    28   14   46 1
    29   15   16 ar
    30   15   18 1
    31   16   17 ar
    32   16   47 1
    33   17   48 1
    34   18   23 ar
    35   18   19 ar
    36   19   20 ar
    37   19   49 1
    38   20   21 ar
    39   20   24 1
    40   21   22 ar
    41   21   50 1
    42   22   23 ar
    43   22   51 1
    44   24   28 1
    45   24   25 2
    46   25   26 1
    47   25   52 1
    48   26   33 1
    49   26   27 2
    50   27   28 1
    51   27   30 1
    52   28   29 1
    53   30   31 1
    54   30   53 1
    55   30   54 1
    56   31   32 1
    57   31   55 1
    58   31   56 1
    59   32   33 am
    60   32   57 1
    61   33   34 2
@<TRIPOS>MOLECULE
CHEMBL226261
   57    61     0     0     0
SMALL
USER_CHARGES

@<TRIPOS>ATOM
      1 C1         -0.0168    1.3906    0.0097 C.ar      1 <0>        -0.0845
      2 C2          1.1659    2.0958    0.0022 C.ar      1 <0>        -0.0634
      3 C3          2.3848    1.4139   -0.0131 C.ar      1 <0>        -0.1245
      4 C4          2.4027    0.0173   -0.0207 C.ar      1 <0>        -0.0883
      5 C5          1.2188   -0.6859   -0.0132 C.ar      1 <0>        -0.1064
      6 C6          0.0021   -0.0041    0.0020 C.ar      1 <0>        -0.0259
      7 C7         -1.2724   -0.7625    0.0101 C.ar      1 <0>         0.1763
      8 C8         -1.2459   -2.1528    0.0081 C.ar      1 <0>        -0.1489
      9 C9         -2.4568   -2.8516    0.0157 C.ar      1 <0>         0.0434
     10 C10        -3.6478   -2.1138    0.0251 C.ar      1 <0>        -0.1834
     11 C11        -3.5858   -0.7355    0.0265 C.ar      1 <0>         0.1210
     12 N1         -2.4270   -0.1071    0.0246 N.ar      1 <0>        -0.4795
     13 C12        -2.4799   -4.3297    0.0135 C.2       1 <0>         0.0150
     14 C13        -1.3854   -5.1432    0.0101 C.2       1 <0>        -0.0773
     15 C14        -1.8614   -6.4604    0.0092 C.2       1 <0>        -0.2325
     16 C15        -3.2514   -6.4015    0.0103 C.2       1 <0>         0.0793
     17 N2         -3.6114   -5.1170    0.0204 N.pl3     1 <0>        -0.5112
     18 H1         -4.5243   -4.7891    0.0291 H         1 <0>         0.4198
     19 C16        -4.0824   -7.6590    0.0044 C.3       1 <0>        -0.0709
     20 C17        -3.2985   -8.7645   -0.7036 C.3       1 <0>         0.1238
     21 N3         -1.9142   -8.8516   -0.2597 N.am      1 <0>        -0.7359
     22 C18        -1.1628   -7.7577    0.0091 C.2       1 <0>         0.5975
     23 O1          0.0286   -7.8416    0.2384 O.2       1 <0>        -0.5323
     24 C19         3.6547    2.1697   -0.0216 C.2       1 <0>         0.5586
     25 O2          3.6387    3.3852   -0.0154 O.2       1 <0>        -0.5320
     26 N4          4.8307    1.5113   -0.0363 N.am      1 <0>        -0.7235
     27 C20         6.0896    2.2605   -0.0448 C.3       1 <0>         0.1451
     28 C21         6.4496    2.6365   -1.4835 C.3       1 <0>        -0.1296
     29 C22         7.7644    3.4189   -1.4924 C.3       1 <0>        -0.1177
     30 C23         8.8770    2.5532   -0.8979 C.3       1 <0>        -0.1228
     31 C24         8.5170    2.1772    0.5408 C.3       1 <0>        -0.1163
     32 C25         7.2022    1.3948    0.5497 C.3       1 <0>        -0.1271
     33 H2         -0.9594    1.9176    0.0260 H         1 <0>         0.1439
     34 H3          1.1510    3.1756    0.0077 H         1 <0>         0.1410
     35 H4          3.3446   -0.5109   -0.0328 H         1 <0>         0.1305
     36 H5          1.2323   -1.7658   -0.0194 H         1 <0>         0.1350
     37 H6         -0.3055   -2.6839    0.0004 H         1 <0>         0.1444
     38 H7         -4.6029   -2.6179    0.0309 H         1 <0>         0.1298
     39 H8         -4.5012   -0.1624    0.0334 H         1 <0>         0.1629
     40 H9         -0.3512   -4.8318    0.0082 H         1 <0>         0.1533
     41 H10        -4.2949   -7.9612    1.0299 H         1 <0>         0.0969
     42 H11        -5.0170   -7.4767   -0.5259 H         1 <0>         0.0988
     43 H12        -3.7889   -9.7193   -0.5140 H         1 <0>         0.0948
     44 H13        -3.3118   -8.5725   -1.7765 H         1 <0>         0.0677
     45 H14        -1.5143   -9.7287   -0.1519 H         1 <0>         0.4041
     46 H15         4.8434    0.5414   -0.0413 H         1 <0>         0.3993
     47 H16         5.9771    3.1667    0.5503 H         1 <0>         0.0900
     48 H17         6.5621    1.7302   -2.0786 H         1 <0>         0.0638
     49 H18         5.6569    3.2532   -1.9071 H         1 <0>         0.0678
     50 H19         8.0208    3.6868   -2.5174 H         1 <0>         0.0655
     51 H20         7.6519    4.3252   -0.8973 H         1 <0>         0.0649
     52 H21         8.9895    1.6470   -1.4930 H         1 <0>         0.0628
     53 H22         9.8137    3.1106   -0.9042 H         1 <0>         0.0646
     54 H23         9.3097    1.5605    0.9644 H         1 <0>         0.0681
     55 H24         8.4045    3.0834    1.1359 H         1 <0>         0.0657
     56 H25         6.9458    1.1269    1.5747 H         1 <0>         0.0695
     57 H26         7.3147    0.4885   -0.0454 H         1 <0>         0.0685
@<TRIPOS>BOND
     1    1    6 ar
     2    1    2 ar
     3    1   33 1
     4    2    3 ar
     5    2   34 1
     6    3    4 ar
     7    3   24 1
     8    4    5 ar
     9    4   35 1
    10    5    6 ar
    11    5   36 1
    12    6    7 1
    13    7   12 ar
    14    7    8 ar
    15    8    9 ar
    16    8   37 1
    17    9   10 ar
    18    9   13 1
    19   10   11 ar
    20   10   38 1
    21   11   12 ar
    22   11   39 1
    23   13   17 1
    24   13   14 2
    25   14   15 1
    26   14   40 1
    27   15   22 1
    28   15   16 2
    29   16   17 1
    30   16   19 1
    31   17   18 1
    32   19   20 1
    33   19   41 1
    34   19   42 1
    35   20   21 1
    36   20   43 1
    37   20   44 1
    38   21   22 am
    39   21   45 1
    40   22   23 2
    41   24   25 2
    42   24   26 am
    43   26   27 1
    44   26   46 1
    45   27   32 1
    46   27   28 1
    47   27   47 1
    48   28   29 1
    49   28   48 1
    50   28   49 1
    51   29   30 1
    52   29   50 1
    53   29   51 1
    54   30   31 1
    55   30   52 1
    56   30   53 1
    57   31   32 1
    58   31   54 1
    59   31   55 1
    60   32   56 1
    61   32   57 1
@<TRIPOS>MOLECULE
CHEMBL388853
   54    58     0     0     0
SMALL
USER_CHARGES

@<TRIPOS>ATOM
      1 C1         -0.0168    1.3906    0.0097 C.ar      1 <0>        -0.0844
      2 C2          1.1659    2.0958    0.0022 C.ar      1 <0>        -0.0633
      3 C3          2.3848    1.4139   -0.0131 C.ar      1 <0>        -0.1245
      4 C4          2.4027    0.0173   -0.0207 C.ar      1 <0>        -0.0884
      5 C5          1.2188   -0.6859   -0.0132 C.ar      1 <0>        -0.1064
      6 C6          0.0021   -0.0041    0.0020 C.ar      1 <0>        -0.0258
      7 C7         -1.2724   -0.7625    0.0101 C.ar      1 <0>         0.1763
      8 C8         -1.2459   -2.1528    0.0081 C.ar      1 <0>        -0.1489
      9 C9         -2.4568   -2.8516    0.0157 C.ar      1 <0>         0.0434
     10 C10        -3.6478   -2.1138    0.0251 C.ar      1 <0>        -0.1834
     11 C11        -3.5858   -0.7355    0.0265 C.ar      1 <0>         0.1210
     12 N1         -2.4270   -0.1071    0.0246 N.ar      1 <0>        -0.4795
     13 C12        -2.4799   -4.3297    0.0135 C.2       1 <0>         0.0150
     14 C13        -1.3854   -5.1432    0.0101 C.2       1 <0>        -0.0773
     15 C14        -1.8614   -6.4604    0.0092 C.2       1 <0>        -0.2325
     16 C15        -3.2514   -6.4015    0.0103 C.2       1 <0>         0.0794
     17 N2         -3.6114   -5.1170    0.0204 N.pl3     1 <0>        -0.5112
     18 H1         -4.5243   -4.7891    0.0291 H         1 <0>         0.4199
     19 C16        -4.0824   -7.6590    0.0044 C.3       1 <0>        -0.0709
     20 C17        -3.2985   -8.7645   -0.7036 C.3       1 <0>         0.1238
     21 N3         -1.9142   -8.8516   -0.2597 N.am      1 <0>        -0.7360
     22 C18        -1.1628   -7.7577    0.0091 C.2       1 <0>         0.5976
     23 O1          0.0286   -7.8416    0.2384 O.2       1 <0>        -0.5323
     24 C19         3.6547    2.1697   -0.0216 C.2       1 <0>         0.5578
     25 O2          3.6387    3.3852   -0.0154 O.2       1 <0>        -0.5323
     26 N4          4.8307    1.5113   -0.0363 N.am      1 <0>        -0.7209
     27 C20         6.0896    2.2605   -0.0448 C.3       1 <0>         0.1391
     28 C21         6.5016    2.5850   -1.4956 C.3       1 <0>        -0.1355
     29 C22         8.0443    2.4472   -1.4922 C.3       1 <0>        -0.1252
     30 C23         8.2770    1.2334   -0.5586 C.3       1 <0>        -0.1249
     31 C24         7.2184    1.4010    0.5509 C.3       1 <0>        -0.1323
     32 H2         -0.9594    1.9176    0.0260 H         1 <0>         0.1440
     33 H3          1.1510    3.1756    0.0077 H         1 <0>         0.1411
     34 H4          3.3446   -0.5109   -0.0328 H         1 <0>         0.1303
     35 H5          1.2323   -1.7658   -0.0194 H         1 <0>         0.1350
     36 H6         -0.3055   -2.6839    0.0004 H         1 <0>         0.1444
     37 H7         -4.6029   -2.6179    0.0309 H         1 <0>         0.1299
     38 H8         -4.5012   -0.1624    0.0334 H         1 <0>         0.1630
     39 H9         -0.3512   -4.8318    0.0082 H         1 <0>         0.1533
     40 H10        -4.2949   -7.9612    1.0299 H         1 <0>         0.0969
     41 H11        -5.0170   -7.4767   -0.5259 H         1 <0>         0.0988
     42 H12        -3.7889   -9.7193   -0.5140 H         1 <0>         0.0948
     43 H13        -3.3118   -8.5725   -1.7765 H         1 <0>         0.0677
     44 H14        -1.5143   -9.7287   -0.1519 H         1 <0>         0.4041
     45 H15         4.8434    0.5414   -0.0413 H         1 <0>         0.3994
     46 H16         5.9796    3.1814    0.5278 H         1 <0>         0.0936
     47 H17         6.0563    1.8703   -2.1876 H         1 <0>         0.0703
     48 H18         6.2100    3.6024   -1.7564 H         1 <0>         0.0719
     49 H19         8.4158    2.2396   -2.4957 H         1 <0>         0.0697
     50 H20         8.5113    3.3435   -1.0840 H         1 <0>         0.0702
     51 H21         8.1184    0.3003   -1.0994 H         1 <0>         0.0674
     52 H22         9.2811    1.2643   -0.1357 H         1 <0>         0.0695
     53 H23         7.6568    1.9053    1.4121 H         1 <0>         0.0765
     54 H24         6.8296    0.4266    0.8463 H         1 <0>         0.0712
@<TRIPOS>BOND
     1    1    6 ar
     2    1    2 ar
     3    1   32 1
     4    2    3 ar
     5    2   33 1
     6    3    4 ar
     7    3   24 1
     8    4    5 ar
     9    4   34 1
    10    5    6 ar
    11    5   35 1
    12    6    7 1
    13    7   12 ar
    14    7    8 ar
    15    8    9 ar
    16    8   36 1
    17    9   10 ar
    18    9   13 1
    19   10   11 ar
    20   10   37 1
    21   11   12 ar
    22   11   38 1
    23   13   17 1
    24   13   14 2
    25   14   15 1
    26   14   39 1
    27   15   22 1
    28   15   16 2
    29   16   17 1
    30   16   19 1
    31   17   18 1
    32   19   20 1
    33   19   40 1
    34   19   41 1
    35   20   21 1
    36   20   42 1
    37   20   43 1
    38   21   22 am
    39   21   44 1
    40   22   23 2
    41   24   25 2
    42   24   26 am
    43   26   27 1
    44   26   45 1
    45   27   31 1
    46   27   28 1
    47   27   46 1
    48   28   29 1
    49   28   47 1
    50   28   48 1
    51   29   30 1
    52   29   49 1
    53   29   50 1
    54   30   31 1
    55   30   51 1
    56   30   52 1
    57   31   53 1
    58   31   54 1
@<TRIPOS>MOLECULE
CHEMBL556392
   33    36     0     0     0
SMALL
USER_CHARGES

@<TRIPOS>ATOM
      1 C1         -0.0187    1.5258    0.0104 C.3       1 <0>        -0.1637
      2 C2          0.0021   -0.0041    0.0020 C.3       1 <0>         0.1102
      3 H1         -1.0258   -0.3668    0.0099 H         1 <0>         0.0768
      4 C3          0.6716   -0.4726   -1.2698 C.3       1 <0>         0.1099
      5 N1          0.4735   -1.8795   -1.5208 N.pl3     1 <0>        -0.7325
      6 C4          1.0805   -2.8878   -0.7639 C.2       1 <0>         0.2470
      7 C5          1.3903   -4.1413   -1.3585 C.ar      1 <0>        -0.1220
      8 C6          1.1522   -4.5518   -2.7585 C.ar      1 <0>        -0.0478
      9 C7          0.5624   -3.6655   -3.6688 C.ar      1 <0>        -0.0700
     10 C8          0.3662   -4.0979   -4.9530 C.ar      1 <0>        -0.1406
     11 C9          0.7519   -5.3865   -5.3136 C.ar      1 <0>         0.1935
     12 N2          1.3031   -6.2092   -4.4517 N.ar      1 <0>        -0.4530
     13 C10         1.5213   -5.8438   -3.1831 C.ar      1 <0>         0.1467
     14 C11         2.1176   -6.7434   -2.2731 C.ar      1 <0>        -0.0531
     15 C12         2.3402   -6.3687   -0.9880 C.ar      1 <0>        -0.0565
     16 C13         1.9910   -5.1027   -0.5321 C.ar      1 <0>        -0.0946
     17 S1          2.1279   -4.2801    1.0341 S.3       1 <0>         0.2026
     18 C14         1.4037   -2.7171    0.5722 C.2       1 <0>        -0.2872
     19 C15         1.2406   -1.6226    1.4208 C.2       1 <0>         0.6026
     20 O1          1.7062   -1.7617    2.5374 O.2       1 <0>        -0.5668
     21 N3          0.6639   -0.4641    1.1983 N.am      1 <0>        -0.6962
     22 Cl1         0.4966   -5.9193   -6.9459 Cl        1 <0>        -0.0199
     23 H2          1.0039    1.9031    0.0027 H         1 <0>         0.0688
     24 H3         -0.5459    1.8868   -0.8726 H         1 <0>         0.0790
     25 H4         -0.5289    1.8773    0.9072 H         1 <0>         0.0706
     26 H5          0.2682    0.0943   -2.1088 H         1 <0>         0.1058
     27 H6          1.7412   -0.2757   -1.1971 H         1 <0>         0.0741
     28 H7         -0.1100   -2.1395   -2.2507 H         1 <0>         0.4007
     29 H8          0.2713   -2.6703   -3.3668 H         1 <0>         0.1529
     30 H9         -0.0858   -3.4427   -5.6830 H         1 <0>         0.1535
     31 H10         2.3974   -7.7337   -2.6008 H         1 <0>         0.1545
     32 H11         2.7983   -7.0688   -0.3050 H         1 <0>         0.1492
     33 H12         0.6835    0.1640    1.9372 H         1 <0>         0.4058
@<TRIPOS>BOND
     1    1    2 1
     2    1   23 1
     3    1   24 1
     4    1   25 1
     5    2    3 1
     6    2   21 1
     7    2    4 1
     8    4    5 1
     9    4   26 1
    10    4   27 1
    11    5    6 1
    12    5   28 1
    13    6   18 2
    14    6    7 1
    15    7   16 ar
    16    7    8 ar
    17    8   13 ar
    18    8    9 ar
    19    9   10 ar
    20    9   29 1
    21   10   11 ar
    22   10   30 1
    23   11   12 ar
    24   11   22 1
    25   12   13 ar
    26   13   14 ar
    27   14   15 ar
    28   14   31 1
    29   15   16 ar
    30   15   32 1
    31   16   17 1
    32   17   18 1
    33   18   19 1
    34   19   20 2
    35   19   21 am
    36   21   33 1
@<TRIPOS>MOLECULE
CHEMBL557318
   31    34     0     0     0
SMALL
USER_CHARGES

@<TRIPOS>ATOM
      1 C1         -0.0187    1.5258    0.0104 C.3       1 <0>        -0.1631
      2 C2          0.0021   -0.0041    0.0020 C.3       1 <0>         0.1104
      3 H1         -1.0257   -0.3669    0.0099 H         1 <0>         0.0757
      4 C3          0.6719   -0.4728   -1.2695 C.3       1 <0>         0.1138
      5 N1          0.4750   -1.8800   -1.5196 N.pl3     1 <0>        -0.7263
      6 C4          1.0828   -2.8877   -0.7631 C.2       1 <0>         0.2511
      7 C5          1.3916   -4.1430   -1.3580 C.ar      1 <0>        -0.0940
      8 C6          1.1556   -4.5604   -2.7484 C.ar      1 <0>        -0.0792
      9 C7          0.5775   -3.8978   -3.9152 C.2       1 <0>        -0.2208
     10 C8          0.6308   -4.7943   -4.9149 C.2       1 <0>         0.0219
     11 O1          1.1830   -5.9379   -4.4761 O.3       1 <0>        -0.1822
     12 C9          1.5173   -5.8402   -3.1706 C.ar      1 <0>         0.0323
     13 C10         2.1088   -6.7332   -2.2766 C.ar      1 <0>        -0.0514
     14 C11         2.3395   -6.3635   -0.9828 C.ar      1 <0>        -0.0625
     15 C12         1.9943   -5.1043   -0.5265 C.ar      1 <0>        -0.1066
     16 S1          2.1328   -4.2774    1.0362 S.3       1 <0>         0.1709
     17 C13         1.4058   -2.7163    0.5720 C.2       1 <0>        -0.2904
     18 C14         1.2409   -1.6228    1.4198 C.2       1 <0>         0.6029
     19 O2          1.7058   -1.7622    2.5368 O.2       1 <0>        -0.5690
     20 N2          0.6643   -0.4643    1.1981 N.am      1 <0>        -0.6975
     21 H2          1.0039    1.9031    0.0027 H         1 <0>         0.0684
     22 H3         -0.5459    1.8868   -0.8726 H         1 <0>         0.0783
     23 H4         -0.5289    1.8773    0.9072 H         1 <0>         0.0701
     24 H5          0.2680    0.0933   -2.1089 H         1 <0>         0.1038
     25 H6          1.7414   -0.2750   -1.1970 H         1 <0>         0.0717
     26 H7         -0.1087   -2.1406   -2.2492 H         1 <0>         0.4011
     27 H8          0.1870   -2.8921   -3.9643 H         1 <0>         0.1557
     28 H9          0.2810   -4.6213   -5.9219 H         1 <0>         0.2132
     29 H10         2.3853   -7.7226   -2.6098 H         1 <0>         0.1470
     30 H11         2.7991   -7.0665   -0.3038 H         1 <0>         0.1501
     31 H12         0.6840    0.1635    1.9373 H         1 <0>         0.4047
@<TRIPOS>BOND
     1    1    2 1
     2    1   21 1
     3    1   22 1
     4    1   23 1
     5    2    3 1
     6    2   20 1
     7    2    4 1
     8    4    5 1
     9    4   24 1
    10    4   25 1
    11    5    6 1
    12    5   26 1
    13    6   17 2
    14    6    7 1
    15    7   15 ar
    16    7    8 ar
    17    8   12 ar
    18    8    9 1
    19    9   10 2
    20    9   27 1
    21   10   11 1
    22   10   28 1
    23   11   12 1
    24   12   13 ar
    25   13   14 ar
    26   13   29 1
    27   14   15 ar
    28   14   30 1
    29   15   16 1
    30   16   17 1
    31   17   18 1
    32   18   19 2
    33   18   20 am
    34   20   31 1
@<TRIPOS>MOLECULE
CHEMBL225519
   27    29     0     0     0
SMALL
USER_CHARGES

@<TRIPOS>ATOM
      1 C1         -0.0169    1.3959    0.0097 C.ar      1 <0>        -0.1618
      2 C2          1.1798    2.0806    0.0020 C.ar      1 <0>         0.1119
      3 N1          2.3304    1.4343   -0.0125 N.ar      1 <0>        -0.4905
      4 C3          2.3933    0.1160   -0.0202 C.ar      1 <0>         0.1111
      5 C4          1.2454   -0.6477   -0.0138 C.ar      1 <0>        -0.1847
      6 C5          0.0021   -0.0041    0.0020 C.ar      1 <0>         0.0378
      7 C6         -1.2554   -0.7809    0.0103 C.2       1 <0>         0.0153
      8 C7         -2.5147   -0.2575    0.0197 C.2       1 <0>        -0.0781
      9 C8         -3.4022   -1.3410    0.0250 C.2       1 <0>        -0.2330
     10 C9         -2.6397   -2.5047    0.0203 C.2       1 <0>         0.0774
     11 N2         -1.3521   -2.1560    0.0039 N.pl3     1 <0>        -0.5120
     12 H1         -0.6030   -2.7721   -0.0077 H         1 <0>         0.4194
     13 C10        -3.2940   -3.8624    0.0294 C.3       1 <0>        -0.0705
     14 C11        -4.6415   -3.7554    0.7441 C.3       1 <0>         0.1240
     15 N3         -5.4275   -2.6111    0.3039 N.am      1 <0>        -0.7361
     16 C12        -4.8742   -1.4055    0.0321 C.2       1 <0>         0.5975
     17 O1         -5.5576   -0.4253   -0.1944 O.2       1 <0>        -0.5324
     18 H2         -0.9547    1.9314    0.0260 H         1 <0>         0.1422
     19 H3          1.1756    3.1606    0.0074 H         1 <0>         0.1619
     20 H4          3.3571   -0.3712   -0.0320 H         1 <0>         0.1582
     21 H5          1.3044   -1.7261   -0.0208 H         1 <0>         0.1271
     22 H6         -2.7770    0.7902    0.0231 H         1 <0>         0.1541
     23 H7         -3.4497   -4.1999   -0.9953 H         1 <0>         0.0965
     24 H8         -2.6562   -4.5718    0.5568 H         1 <0>         0.0985
     25 H9         -5.2114   -4.6656    0.5573 H         1 <0>         0.0946
     26 H10        -4.4646   -3.6684    1.8161 H         1 <0>         0.0675
     27 H11        -6.3862   -2.7170    0.2008 H         1 <0>         0.4040
@<TRIPOS>BOND
     1    1    6 ar
     2    1    2 ar
     3    1   18 1
     4    2    3 ar
     5    2   19 1
     6    3    4 ar
     7    4    5 ar
     8    4   20 1
     9    5    6 ar
    10    5   21 1
    11    6    7 1
    12    7   11 1
    13    7    8 2
    14    8    9 1
    15    8   22 1
    16    9   16 1
    17    9   10 2
    18   10   11 1
    19   10   13 1
    20   11   12 1
    21   13   14 1
    22   13   23 1
    23   13   24 1
    24   14   15 1
    25   14   25 1
    26   14   26 1
    27   15   16 am
    28   15   27 1
    29   16   17 2
@<TRIPOS>MOLECULE
CHEMBL554286
   43    47     0     0     0
SMALL
USER_CHARGES

@<TRIPOS>ATOM
      1 C1         -0.0187    1.5258    0.0104 C.3       1 <0>        -0.1634
      2 C2          0.0021   -0.0041    0.0020 C.3       1 <0>         0.1104
      3 H1         -1.0258   -0.3668    0.0099 H         1 <0>         0.0762
      4 C3          0.6716   -0.4726   -1.2697 C.3       1 <0>         0.1104
      5 N1          0.4731   -1.8795   -1.5211 N.pl3     1 <0>        -0.7325
      6 C4          1.0789   -2.8883   -0.7639 C.2       1 <0>         0.2487
      7 C5          1.3890   -4.1421   -1.3582 C.ar      1 <0>        -0.1243
      8 C6          1.1552   -4.5515   -2.7590 C.ar      1 <0>        -0.0476
      9 C7          0.5642   -3.6633   -3.6686 C.ar      1 <0>        -0.0815
     10 C8          0.3751   -4.0873   -4.9543 C.ar      1 <0>        -0.1437
     11 C9          0.7712   -5.3806   -5.3226 C.ar      1 <0>         0.1843
     12 N2          1.3236   -6.2069   -4.4538 N.ar      1 <0>        -0.4432
     13 C10         1.5295   -5.8427   -3.1842 C.ar      1 <0>         0.1364
     14 C11         2.1192   -6.7445   -2.2711 C.ar      1 <0>        -0.0492
     15 C12         2.3342   -6.3717   -0.9844 C.ar      1 <0>        -0.0640
     16 C13         1.9861   -5.1046   -0.5302 C.ar      1 <0>        -0.0927
     17 S1          2.1215   -4.2819    1.0360 S.3       1 <0>         0.1939
     18 C14         1.4015   -2.7176    0.5723 C.2       1 <0>        -0.2902
     19 C15         1.2407   -1.6221    1.4202 C.2       1 <0>         0.6031
     20 O1          1.7085   -1.7605    2.5360 O.2       1 <0>        -0.5679
     21 N3          0.6639   -0.4641    1.1982 N.am      1 <0>        -0.6965
     22 C16         0.5646   -5.8309   -6.7198 C.ar      1 <0>        -0.0933
     23 C17        -0.0122   -4.9719   -7.6541 C.ar      1 <0>        -0.0709
     24 C18        -0.2021   -5.3962   -8.9530 C.ar      1 <0>        -0.1349
     25 C19         0.1779   -6.6720   -9.3309 C.ar      1 <0>        -0.0746
     26 C20         0.7506   -7.5301   -8.4106 C.ar      1 <0>        -0.1625
     27 C21         0.9521   -7.1149   -7.1070 C.ar      1 <0>         0.1424
     28 F1          1.5173   -7.9515   -6.2093 F         1 <0>        -0.1130
     29 H2          1.0039    1.9031    0.0027 H         1 <0>         0.0686
     30 H3         -0.5459    1.8868   -0.8726 H         1 <0>         0.0786
     31 H4         -0.5289    1.8773    0.9072 H         1 <0>         0.0703
     32 H5          0.2685    0.0946   -2.1087 H         1 <0>         0.1047
     33 H6          1.7412   -0.2761   -1.1969 H         1 <0>         0.0733
     34 H7         -0.1099   -2.1390   -2.2515 H         1 <0>         0.4010
     35 H8          0.2669   -2.6713   -3.3621 H         1 <0>         0.1461
     36 H9         -0.0766   -3.4297   -5.6822 H         1 <0>         0.1448
     37 H10         2.3997   -7.7348   -2.5982 H         1 <0>         0.1520
     38 H11         2.7856   -7.0736   -0.2989 H         1 <0>         0.1465
     39 H12         0.6834    0.1638    1.9373 H         1 <0>         0.4053
     40 H13        -0.3102   -3.9760   -7.3613 H         1 <0>         0.1367
     41 H14        -0.6490   -4.7308   -9.6770 H         1 <0>         0.1353
     42 H15         0.0261   -6.9989  -10.3489 H         1 <0>         0.1365
     43 H16         1.0448   -8.5248   -8.7113 H         1 <0>         0.1403
@<TRIPOS>BOND
     1    1    2 1
     2    1   29 1
     3    1   30 1
     4    1   31 1
     5    2    3 1
     6    2   21 1
     7    2    4 1
     8    4    5 1
     9    4   32 1
    10    4   33 1
    11    5    6 1
    12    5   34 1
    13    6   18 2
    14    6    7 1
    15    7   16 ar
    16    7    8 ar
    17    8   13 ar
    18    8    9 ar
    19    9   10 ar
    20    9   35 1
    21   10   11 ar
    22   10   36 1
    23   11   12 ar
    24   11   22 1
    25   12   13 ar
    26   13   14 ar
    27   14   15 ar
    28   14   37 1
    29   15   16 ar
    30   15   38 1
    31   16   17 1
    32   17   18 1
    33   18   19 1
    34   19   20 2
    35   19   21 am
    36   21   39 1
    37   22   27 ar
    38   22   23 ar
    39   23   24 ar
    40   23   40 1
    41   24   25 ar
    42   24   41 1
    43   25   26 ar
    44   25   42 1
    45   26   27 ar
    46   26   43 1
    47   27   28 1
@<TRIPOS>MOLECULE
CHEMBL396160
   50    53     0     0     0
SMALL
USER_CHARGES

@<TRIPOS>ATOM
      1 C1         -0.0187    1.5258    0.0104 C.3       1 <0>        -0.1460
      2 C2          0.0021   -0.0041    0.0020 C.3       1 <0>        -0.0438
      3 C3         -1.4314   -0.5358    0.0275 C.3       1 <0>         0.1135
      4 N1         -2.0625   -0.3761    1.3312 N.am      1 <0>        -0.7139
      5 C4         -1.3906   -0.5584    2.4908 C.2       1 <0>         0.5920
      6 O1         -1.9624   -0.5504    3.5645 O.2       1 <0>        -0.5279
      7 C5          0.0651   -0.7676    2.3952 C.2       1 <0>         0.0084
      8 C6          0.7304   -0.5055    1.2219 C.2       1 <0>        -0.0907
      9 C7          2.0791   -0.7900    1.4314 C.ar      1 <0>        -0.1136
     10 C8          3.2015   -0.7066    0.5981 C.ar      1 <0>         0.0327
     11 C9          4.4259   -1.0826    1.1531 C.ar      1 <0>        -0.1760
     12 C10         4.5291   -1.5220    2.4784 C.ar      1 <0>        -0.0654
     13 C11         3.4412   -1.6080    3.3050 C.ar      1 <0>        -0.1225
     14 C12         2.2020   -1.2383    2.7781 C.ar      1 <0>         0.1344
     15 N2          0.9588   -1.2129    3.3372 N.pl3     1 <0>        -0.5335
     16 H1          0.7421   -1.4669    4.2479 H         1 <0>         0.4314
     17 C13         5.6433   -1.0156    0.3210 C.2       1 <0>         0.5702
     18 O2          5.5715   -0.6366   -0.8320 O.2       1 <0>        -0.4972
     19 N3          6.8345   -1.3745    0.8394 N.am      1 <0>        -0.6077
     20 C14         7.9792   -1.3115    0.0570 C.2       1 <0>         0.2759
     21 N4          9.2201   -1.6202    0.3746 N.2       1 <0>        -0.5111
     22 C15        10.1674   -1.4770   -0.5568 C.2       1 <0>        -0.0134
     23 C16         9.8138   -1.0186   -1.7948 C.2       1 <0>        -0.2373
     24 S1          8.1524   -0.7988   -1.6427 S.3       1 <0>         0.2942
     25 C17        11.5696   -1.8072   -0.2542 C.2       1 <0>         0.6072
     26 O3         12.4243   -1.6728   -1.1092 O.2       1 <0>        -0.5212
     27 N5         11.9064   -2.2586    0.9703 N.am      1 <0>        -0.7225
     28 C18        13.3020   -2.5872    1.2715 C.3       1 <0>         0.0918
     29 C19        13.4107   -3.0726    2.7184 C.3       1 <0>        -0.0195
     30 N6         14.8101   -3.4021    3.0204 N.4       1 <0>        -0.6315
     31 H2          1.0039    1.9031    0.0027 H         1 <0>         0.0632
     32 H3         -0.5459    1.8868   -0.8726 H         1 <0>         0.0687
     33 H4         -0.5289    1.8773    0.9072 H         1 <0>         0.0566
     34 H5          0.5084   -0.3573   -0.8963 H         1 <0>         0.1074
     35 H6         -2.0197    0.0005   -0.7171 H         1 <0>         0.0977
     36 H7         -1.4194   -1.5946   -0.2311 H         1 <0>         0.0724
     37 H8         -2.9998   -0.1295    1.3688 H         1 <0>         0.4132
     38 H9          3.1235   -0.3682   -0.4245 H         1 <0>         0.1534
     39 H10         5.4991   -1.8028    2.8613 H         1 <0>         0.1260
     40 H11         3.5377   -1.9484    4.3254 H         1 <0>         0.1424
     41 H12         6.8918   -1.6768    1.7593 H         1 <0>         0.4259
     42 H13        10.4422   -0.8451   -2.6558 H         1 <0>         0.2106
     43 H14        11.2249   -2.3658    1.6521 H         1 <0>         0.4172
     44 H15        13.6437   -3.3732    0.5980 H         1 <0>         0.0910
     45 H16        13.9211   -1.7001    1.1383 H         1 <0>         0.0911
     46 H17        13.0691   -2.2866    3.3919 H         1 <0>         0.1419
     47 H18        12.7916   -3.9597    2.8515 H         1 <0>         0.1419
     48 H19        15.1264   -4.1297    2.3969 H         1 <0>         0.4391
     49 H20        15.3832   -2.5809    2.8971 H         1 <0>         0.4391
     50 H21        14.8818   -3.7222    3.9746 H         1 <0>         0.4441
@<TRIPOS>BOND
     1    1    2 1
     2    1   31 1
     3    1   32 1
     4    1   33 1
     5    2    8 1
     6    2    3 1
     7    2   34 1
     8    3    4 1
     9    3   35 1
    10    3   36 1
    11    4    5 am
    12    4   37 1
    13    5    6 2
    14    5    7 1
    15    7   15 1
    16    7    8 2
    17    8    9 1
    18    9   14 ar
    19    9   10 ar
    20   10   11 ar
    21   10   38 1
    22   11   12 ar
    23   11   17 1
    24   12   13 ar
    25   12   39 1
    26   13   14 ar
    27   13   40 1
    28   14   15 1
    29   15   16 1
    30   17   18 2
    31   17   19 am
    32   19   20 1
    33   19   41 1
    34   20   24 1
    35   20   21 2
    36   21   22 1
    37   22   23 2
    38   22   25 1
    39   23   24 1
    40   23   42 1
    41   25   26 2
    42   25   27 am
    43   27   28 1
    44   27   43 1
    45   28   29 1
    46   28   44 1
    47   28   45 1
    48   29   30 1
    49   29   46 1
    50   29   47 1
    51   30   48 1
    52   30   49 1
    53   30   50 1
@<TRIPOS>MOLECULE
CHEMBL396160__1
   50    53     0     0     0
SMALL
USER_CHARGES

@<TRIPOS>ATOM
      1 C1         -0.0187    1.5258    0.0104 C.3       1 <0>        -0.1460
      2 C2          0.0021   -0.0041    0.0020 C.3       1 <0>        -0.0438
      3 C3          0.7302   -0.4995   -1.2480 C.3       1 <0>         0.1135
      4 N1          2.1721   -0.3050   -1.1676 N.am      1 <0>        -0.7139
      5 C4          2.8670   -0.4869   -0.0216 C.2       1 <0>         0.5920
      6 O1          4.0827   -0.4481   -0.0025 O.2       1 <0>        -0.5279
      7 C5          2.0852   -0.7336    1.2032 C.2       1 <0>         0.0084
      8 C6          0.7304   -0.5055    1.2219 C.2       1 <0>        -0.0908
      9 C7          0.2693   -0.8196    2.4997 C.ar      1 <0>        -0.1136
     10 C8         -1.0044   -0.7764    3.0802 C.ar      1 <0>         0.0327
     11 C9         -1.1007   -1.1733    4.4149 C.ar      1 <0>        -0.1760
     12 C10         0.0205   -1.5945    5.1401 C.ar      1 <0>        -0.0654
     13 C11         1.2717   -1.6413    4.5864 C.ar      1 <0>        -0.1224
     14 C12         1.3999   -1.2499    3.2521 C.ar      1 <0>         0.1344
     15 N2          2.4891   -1.1862    2.4346 N.pl3     1 <0>        -0.5335
     16 H1          3.3971   -1.4215    2.6815 H         1 <0>         0.4314
     17 C13        -2.4186   -1.1478    5.0793 C.2       1 <0>         0.5702
     18 O2         -3.4025   -0.7845    4.4644 O.2       1 <0>        -0.4972
     19 N3         -2.5313   -1.5274    6.3676 N.am      1 <0>        -0.6077
     20 C14        -3.7705   -1.5035    6.9923 C.2       1 <0>         0.2760
     21 N4         -4.0825   -1.8269    8.2308 N.2       1 <0>        -0.5111
     22 C15        -5.3590   -1.7214    8.6115 C.2       1 <0>        -0.0133
     23 C16        -6.2851   -1.2848    7.7063 C.2       1 <0>        -0.2372
     24 S1         -5.3544   -1.0194    6.3297 S.3       1 <0>         0.2940
     25 C17        -5.7614   -2.0704    9.9837 C.2       1 <0>         0.6072
     26 O3         -6.9263   -1.9712   10.3198 O.2       1 <0>        -0.5213
     27 N5         -4.8392   -2.5000   10.8677 N.am      1 <0>        -0.7225
     28 C18        -5.2397   -2.8473   12.2335 C.3       1 <0>         0.0918
     29 C19        -4.0117   -3.3016   13.0251 C.3       1 <0>        -0.0195
     30 N6         -4.4133   -3.6499   14.3945 N.4       1 <0>        -0.6314
     31 H2          1.0039    1.9031    0.0027 H         1 <0>         0.0566
     32 H3         -0.5459    1.8868   -0.8726 H         1 <0>         0.0687
     33 H4         -0.5289    1.8773    0.9072 H         1 <0>         0.0632
     34 H5         -1.0199   -0.3830    0.0056 H         1 <0>         0.1075
     35 H6          0.5243   -1.5619   -1.3782 H         1 <0>         0.0724
     36 H7          0.3494    0.0403   -2.1151 H         1 <0>         0.0977
     37 H8          2.6518   -0.0352   -1.9663 H         1 <0>         0.4132
     38 H9         -1.8701   -0.4515    2.5222 H         1 <0>         0.1534
     39 H10        -0.1058   -1.8919    6.1706 H         1 <0>         0.1260
     40 H11         2.1267   -1.9681    5.1596 H         1 <0>         0.1424
     41 H12        -1.7464   -1.8174    6.8582 H         1 <0>         0.4259
     42 H13        -7.3470   -1.1417    7.8417 H         1 <0>         0.2106
     43 H14        -3.9103   -2.5791   10.5997 H         1 <0>         0.4172
     44 H15        -5.6806   -1.9749   12.7158 H         1 <0>         0.0911
     45 H16        -5.9715   -3.6545   12.2033 H         1 <0>         0.0911
     46 H17        -3.5708   -4.1740   12.5427 H         1 <0>         0.1419
     47 H18        -3.2798   -2.4944   13.0552 H         1 <0>         0.1419
     48 H19        -4.8214   -2.8423   14.8410 H         1 <0>         0.4391
     49 H20        -5.0908   -4.3971   14.3666 H         1 <0>         0.4391
     50 H21        -3.6035   -3.9495   14.9166 H         1 <0>         0.4441
@<TRIPOS>BOND
     1    1    2 1
     2    1   31 1
     3    1   32 1
     4    1   33 1
     5    2    8 1
     6    2    3 1
     7    2   34 1
     8    3    4 1
     9    3   35 1
    10    3   36 1
    11    4    5 am
    12    4   37 1
    13    5    6 2
    14    5    7 1
    15    7   15 1
    16    7    8 2
    17    8    9 1
    18    9   14 ar
    19    9   10 ar
    20   10   11 ar
    21   10   38 1
    22   11   12 ar
    23   11   17 1
    24   12   13 ar
    25   12   39 1
    26   13   14 ar
    27   13   40 1
    28   14   15 1
    29   15   16 1
    30   17   18 2
    31   17   19 am
    32   19   20 1
    33   19   41 1
    34   20   24 1
    35   20   21 2
    36   21   22 1
    37   22   23 2
    38   22   25 1
    39   23   24 1
    40   23   42 1
    41   25   26 2
    42   25   27 am
    43   27   28 1
    44   27   43 1
    45   28   29 1
    46   28   44 1
    47   28   45 1
    48   29   30 1
    49   29   46 1
    50   29   47 1
    51   30   48 1
    52   30   49 1
    53   30   50 1
@<TRIPOS>MOLECULE
CHEMBL594090
   50    55     0     0     0
SMALL
USER_CHARGES

@<TRIPOS>ATOM
      1 C1         -0.0164    1.3550    0.0095 C.ar      1 <0>        -0.1222
      2 C2          1.1574    2.0971    0.0023 C.ar      1 <0>        -0.0977
      3 C3          2.3749    1.4455   -0.0129 C.ar      1 <0>        -0.0778
      4 C4          2.4083    0.0676   -0.0206 C.ar      1 <0>        -0.1139
      5 C5          1.2295   -0.7113   -0.0135 C.ar      1 <0>        -0.0835
      6 C6          0.0021   -0.0041    0.0020 C.ar      1 <0>        -0.0751
      7 C7          1.4485   -2.1470   -0.0234 C.2       1 <0>        -0.1315
      8 C8          2.7191   -2.6185   -0.0380 C.2       1 <0>        -0.0709
      9 S1          3.7106   -1.1371   -0.0395 S.3       1 <0>         0.0242
     10 C9          3.1737   -4.0242   -0.0504 C.ar      1 <0>        -0.0523
     11 C10         2.6581   -4.9311    0.8653 C.ar      1 <0>        -0.0248
     12 C11         3.0842   -6.2618    0.8585 C.ar      1 <0>        -0.0247
     13 C12         4.0273   -6.6917   -0.0635 C.ar      1 <0>         0.0013
     14 C13         4.5552   -5.7888   -0.9926 C.ar      1 <0>        -0.1755
     15 C14         4.1256   -4.4495   -0.9933 C.ar      1 <0>         0.1468
     16 N1          4.8021   -3.8175   -2.0018 N.pl3     1 <0>        -0.5083
     17 H1          4.7127   -2.8811   -2.2386 H         1 <0>         0.4379
     18 N2          5.6428   -4.7377   -2.6360 N.2       1 <0>        -0.2520
     19 C15         5.5347   -5.9056   -2.0694 C.2       1 <0>         0.0840
     20 C16         2.5252   -7.2202    1.8433 C.2       1 <0>        -0.1645
     21 C17         2.4286   -7.0381    3.1855 C.2       1 <0>         0.1247
     22 N3          1.8617   -8.1356    3.7607 N.pl3     1 <0>        -0.4476
     23 C18         1.5690   -9.0763    2.7969 C.ar      1 <0>        -0.0587
     24 C19         1.9647   -8.5439    1.5538 C.ar      1 <0>         0.1881
     25 N4          1.7811   -9.2643    0.4495 N.ar      1 <0>        -0.5439
     26 C20         1.2301  -10.4643    0.5220 C.ar      1 <0>         0.5420
     27 N5          0.8430  -10.9926    1.6764 N.ar      1 <0>        -0.5538
     28 C21         1.0001  -10.3437    2.8184 C.ar      1 <0>         0.2126
     29 N6          1.0507  -11.1927   -0.6439 N.pl3     1 <0>        -0.8313
     30 C22         1.6019   -8.2929    5.1939 C.3       1 <0>         0.1246
     31 C23         2.7659   -9.0436    5.8439 C.3       1 <0>        -0.1992
     32 C24         2.4986   -9.2054    7.3181 C.2       1 <0>         0.4964
     33 O1          1.4723   -8.7613    7.8040 O.co2     1 <0>        -0.6961
     34 O2          3.3087   -9.7803    8.0251 O.co2     1 <0>        -0.6941
     35 H2         -0.9657    1.8696    0.0259 H         1 <0>         0.1274
     36 H3          1.1184    3.1764    0.0081 H         1 <0>         0.1337
     37 H4          3.2946    2.0117   -0.0190 H         1 <0>         0.1306
     38 H5         -0.9293   -0.5508    0.0084 H         1 <0>         0.1264
     39 H6          0.6111   -2.8290   -0.0187 H         1 <0>         0.1418
     40 H7          1.9237   -4.6061    1.5874 H         1 <0>         0.1360
     41 H8          4.3536   -7.7212   -0.0639 H         1 <0>         0.1338
     42 H9          6.0659   -6.8023   -2.3525 H         1 <0>         0.1992
     43 H10         2.7529   -6.1558    3.7173 H         1 <0>         0.1798
     44 H11         0.6792  -10.7860    3.7500 H         1 <0>         0.1679
     45 H12         1.3280  -10.8207   -1.4957 H         1 <0>         0.4099
     46 H13         0.6480  -12.0744   -0.6077 H         1 <0>         0.4102
     47 H14         1.5007   -7.3103    5.6548 H         1 <0>         0.0975
     48 H15         0.6805   -8.8576    5.3363 H         1 <0>         0.0922
     49 H16         2.8670  -10.0262    5.3830 H         1 <0>         0.0644
     50 H17         3.6872   -8.4789    5.7015 H         1 <0>         0.0661
@<TRIPOS>BOND
     1    1    6 ar
     2    1    2 ar
     3    1   35 1
     4    2    3 ar
     5    2   36 1
     6    3    4 ar
     7    3   37 1
     8    4    9 1
     9    4    5 ar
    10    5    6 ar
    11    5    7 1
    12    6   38 1
    13    7    8 2
    14    7   39 1
    15    8    9 1
    16    8   10 1
    17   10   15 ar
    18   10   11 ar
    19   11   12 ar
    20   11   40 1
    21   12   13 ar
    22   12   20 1
    23   13   14 ar
    24   13   41 1
    25   14   19 1
    26   14   15 ar
    27   15   16 1
    28   16   17 1
    29   16   18 1
    30   18   19 2
    31   19   42 1
    32   20   24 1
    33   20   21 2
    34   21   22 1
    35   21   43 1
    36   22   23 1
    37   22   30 1
    38   23   28 ar
    39   23   24 ar
    40   24   25 ar
    41   25   26 ar
    42   26   27 ar
    43   26   29 1
    44   27   28 ar
    45   28   44 1
    46   29   45 1
    47   29   46 1
    48   30   31 1
    49   30   47 1
    50   30   48 1
    51   31   32 1
    52   31   49 1
    53   31   50 1
    54   32   33 2
    55   32   34 1
@<TRIPOS>MOLECULE
CHEMBL258045
   64    69     0     0     0
SMALL
USER_CHARGES

@<TRIPOS>ATOM
      1 C1         -0.0178    1.4648    0.0101 C.3       1 <0>        -0.0472
      2 N1          0.0021   -0.0041    0.0020 N.4       1 <0>        -0.3864
      3 C2         -1.3756   -0.5106    0.0035 C.3       1 <0>        -0.0014
      4 C3         -1.3615   -2.0381   -0.0867 C.3       1 <0>        -0.1564
      5 C4         -0.6051   -2.6081    1.1167 C.3       1 <0>         0.1356
      6 C5          0.8066   -2.0155    1.1472 C.3       1 <0>        -0.1623
      7 C6          0.7122   -0.4888    1.1916 C.3       1 <0>        -0.0028
      8 N2         -0.5220   -4.0658    0.9974 N.am      1 <0>        -0.7166
      9 C7         -0.3758   -4.8251    2.1013 C.2       1 <0>         0.6042
     10 O1         -0.3129   -4.2999    3.1968 O.2       1 <0>        -0.5274
     11 C8         -0.2924   -6.2898    1.9815 C.2       1 <0>        -0.0118
     12 C9         -0.1493   -7.0704    3.0942 C.2       1 <0>        -0.2384
     13 S1         -0.1049   -8.6236    2.4483 S.3       1 <0>         0.2872
     14 C10        -0.2770   -8.1915    0.7262 C.2       1 <0>         0.2746
     15 N3         -0.3608   -6.8778    0.7836 N.2       1 <0>        -0.5069
     16 N4         -0.3171   -9.0228   -0.3845 N.am      1 <0>        -0.6048
     17 C11        -0.2194  -10.3581   -0.2306 C.2       1 <0>         0.5676
     18 O2         -0.0961  -10.8345    0.8811 O.2       1 <0>        -0.4956
     19 C12        -0.2620  -11.2429   -1.4126 C.ar      1 <0>        -0.1137
     20 C13        -0.3988  -10.6725   -2.6833 C.ar      1 <0>        -0.1305
     21 C14        -0.4452  -11.4349   -3.8178 C.ar      1 <0>        -0.0472
     22 C15        -0.3483  -12.8268   -3.6594 C.ar      1 <0>        -0.0982
     23 C16        -0.3589  -13.8730   -4.5988 C.2       1 <0>        -0.0988
     24 C17        -0.2439  -15.0313   -3.9166 C.2       1 <0>         0.0186
     25 N5         -0.1409  -14.7590   -2.5500 N.pl3     1 <0>        -0.4408
     26 C18        -0.2088  -13.4186   -2.3725 C.ar      1 <0>         0.1204
     27 C19        -0.1590  -12.6240   -1.2297 C.ar      1 <0>        -0.0637
     28 C20         0.0193  -15.8486   -1.5856 C.3       1 <0>         0.1201
     29 C21        -0.4087  -15.4769   -0.1611 C.3       1 <0>        -0.1382
     30 C22         1.0402  -15.0109    0.0645 C.3       1 <0>        -0.1571
     31 C23         1.4480  -15.9913   -1.0490 C.3       1 <0>        -0.1402
     32 C24        -0.5842  -17.1571   -2.0870 C.3       1 <0>         0.1208
     33 N6         -0.2612  -17.4102   -3.4877 N.am      1 <0>        -0.7283
     34 C25        -0.2019  -16.4220   -4.4075 C.2       1 <0>         0.5910
     35 O3         -0.1174  -16.6697   -5.5952 O.2       1 <0>        -0.5054
     36 H1          1.0047    1.8421    0.0024 H         1 <0>         0.1247
     37 H2         -0.5450    1.8259   -0.8730 H         1 <0>         0.1246
     38 H3         -0.5280    1.8163    0.9069 H         1 <0>         0.1227
     39 H4         -1.8732   -0.2060    0.9241 H         1 <0>         0.1327
     40 H5         -1.9135   -0.1015   -0.8518 H         1 <0>         0.1369
     41 H6         -2.3852   -2.4123   -0.0837 H         1 <0>         0.1200
     42 H7         -0.8642   -2.3438   -1.0072 H         1 <0>         0.0952
     43 H8         -1.1305   -2.3457    2.0350 H         1 <0>         0.1059
     44 H9          1.3327   -2.3735    2.0321 H         1 <0>         0.1176
     45 H10         1.3489   -2.3207    0.2523 H         1 <0>         0.0911
     46 H11         1.7157   -0.0637    1.2136 H         1 <0>         0.1346
     47 H12         0.1701   -0.1847    2.0870 H         1 <0>         0.1323
     48 H13        -0.5722   -4.4846    0.1239 H         1 <0>         0.4154
     49 H14        -0.0814   -6.7666    4.1283 H         1 <0>         0.2099
     50 H15        -0.4155   -8.6427   -1.2715 H         1 <0>         0.4277
     51 H16        -0.4702   -9.5984   -2.7705 H         1 <0>         0.1232
     52 H17        -0.5516  -10.9855   -4.7941 H         1 <0>         0.1459
     53 H18        -0.4439  -13.7684   -5.6704 H         1 <0>         0.1649
     54 H19        -0.0495  -13.0563   -0.2461 H         1 <0>         0.1609
     55 H20        -1.1389  -14.6687   -0.1210 H         1 <0>         0.0856
     56 H21        -0.6916  -16.3353    0.4483 H         1 <0>         0.1125
     57 H22         1.2072  -13.9649   -0.1923 H         1 <0>         0.0946
     58 H23         1.4359  -15.2752    1.0452 H         1 <0>         0.0867
     59 H24         1.6806  -16.9925   -0.6862 H         1 <0>         0.1065
     60 H25         2.2091  -15.5962   -1.7220 H         1 <0>         0.0789
     61 H26        -0.2013  -17.9785   -1.4813 H         1 <0>         0.1111
     62 H27        -1.6677  -17.1127   -1.9759 H         1 <0>         0.0796
     63 H28        -0.0822  -18.3212   -3.7686 H         1 <0>         0.4128
     64 H29         0.4767   -0.3284   -0.8272 H         1 <0>         0.4248
@<TRIPOS>BOND
     1    1    2 1
     2    1   36 1
     3    1   37 1
     4    1   38 1
     5    2    7 1
     6    2    3 1
     7    2   64 1
     8    3    4 1
     9    3   39 1
    10    3   40 1
    11    4    5 1
    12    4   41 1
    13    4   42 1
    14    5    6 1
    15    5    8 1
    16    5   43 1
    17    6    7 1
    18    6   44 1
    19    6   45 1
    20    7   46 1
    21    7   47 1
    22    8    9 am
    23    8   48 1
    24    9   10 2
    25    9   11 1
    26   11   15 1
    27   11   12 2
    28   12   13 1
    29   12   49 1
    30   13   14 1
    31   14   15 2
    32   14   16 1
    33   16   17 am
    34   16   50 1
    35   17   18 2
    36   17   19 1
    37   19   27 ar
    38   19   20 ar
    39   20   21 ar
    40   20   51 1
    41   21   22 ar
    42   21   52 1
    43   22   26 ar
    44   22   23 1
    45   23   24 2
    46   23   53 1
    47   24   34 1
    48   24   25 1
    49   25   26 1
    50   25   28 1
    51   26   27 ar
    52   27   54 1
    53   28   31 1
    54   28   29 1
    55   28   32 1
    56   29   30 1
    57   29   55 1
    58   29   56 1
    59   30   31 1
    60   30   57 1
    61   30   58 1
    62   31   59 1
    63   31   60 1
    64   32   33 1
    65   32   61 1
    66   32   62 1
    67   33   34 am
    68   33   63 1
    69   34   35 2
@<TRIPOS>MOLECULE
CHEMBL516802
   53    57     0     0     0
SMALL
USER_CHARGES

@<TRIPOS>ATOM
      1 C1         -0.0033    1.3870   -0.3186 C.ar      1 <0>        -0.1065
      2 C2          1.1740    2.0796   -0.3108 C.ar      1 <0>        -0.0900
      3 C3          2.3727    1.4179   -0.0299 C.ar      1 <0>        -0.1300
      4 C4          2.3677    0.0471    0.2433 C.ar      1 <0>        -0.0618
      5 C5          1.1911   -0.6469    0.2358 C.ar      1 <0>        -0.1148
      6 C6         -0.0092    0.0150   -0.0449 C.ar      1 <0>        -0.0382
      7 C7         -1.2778   -0.7322   -0.0526 C.2       1 <0>        -0.0642
      8 C8         -1.2831   -2.0500    0.2103 C.2       1 <0>        -0.1169
      9 C9         -2.5526   -2.7977    0.2025 C.ar      1 <0>         0.1686
     10 C10        -2.5515   -4.1637    0.4818 C.ar      1 <0>        -0.1641
     11 C11        -3.7658   -4.8558    0.4697 C.ar      1 <0>         0.0339
     12 C12        -4.9349   -4.1399    0.1755 C.ar      1 <0>        -0.1596
     13 C13        -4.8497   -2.7886   -0.0898 C.ar      1 <0>         0.1194
     14 N1         -3.6904   -2.1620   -0.0656 N.ar      1 <0>        -0.4822
     15 C14        -3.8160   -6.3038    0.7588 C.2       1 <0>         0.0594
     16 C15        -4.9391   -7.0683    0.7673 C.2       1 <0>        -0.0790
     17 C16        -4.5500   -8.3859    1.0869 C.2       1 <0>        -0.2663
     18 C17        -3.1581   -8.3770    1.2676 C.2       1 <0>         0.2987
     19 N2         -2.7295   -7.0992    1.0577 N.pl3     1 <0>        -0.5266
     20 H1         -1.8091   -6.7979    1.1123 H         1 <0>         0.4243
     21 N3         -2.5353   -9.5228    1.5829 N.2       1 <0>        -0.5297
     22 C18        -3.1836  -10.6420    1.7260 C.2       1 <0>         0.3983
     23 N4         -4.5272  -10.7443    1.5706 N.am      1 <0>        -0.6509
     24 H2         -4.9636  -11.6026    1.6883 H         1 <0>         0.4249
     25 C19        -5.2608   -9.6524    1.2514 C.2       1 <0>         0.5657
     26 O1         -6.4689   -9.7225    1.1074 O.2       1 <0>        -0.5169
     27 C20         3.6452    2.1673   -0.0221 C.2       1 <0>         0.5632
     28 O2          4.6547    1.6557   -0.4663 O.2       1 <0>        -0.5297
     29 N5          3.6874    3.4183    0.4775 N.am      1 <0>        -0.6124
     30 C21         2.5141    4.0093    1.1404 C.3       1 <0>         0.0623
     31 C22         2.9576    4.5754    2.4942 C.3       1 <0>         0.0458
     32 O3          4.0787    5.4405    2.2981 O.3       1 <0>        -0.3776
     33 C23         5.2353    4.7886    1.7678 C.3       1 <0>         0.0474
     34 C24         4.9102    4.2314    0.3818 C.3       1 <0>         0.0758
     35 H3         -0.9300    1.8992   -0.5317 H         1 <0>         0.1359
     36 H4          1.1787    3.1388   -0.5221 H         1 <0>         0.1340
     37 H5          3.2943   -0.4637    0.4599 H         1 <0>         0.1340
     38 H6          1.1874   -1.7062    0.4461 H         1 <0>         0.1335
     39 H7         -2.2042   -0.2211   -0.2697 H         1 <0>         0.1401
     40 H8         -0.3567   -2.5610    0.4273 H         1 <0>         0.1323
     41 H9         -1.6282   -4.6783    0.7034 H         1 <0>         0.1313
     42 H10        -5.8916   -4.6407    0.1565 H         1 <0>         0.1442
     43 H11        -5.7483   -2.2343   -0.3171 H         1 <0>         0.1652
     44 H12        -5.9447   -6.7295    0.5663 H         1 <0>         0.1580
     45 H13        -2.6257  -11.5311    1.9800 H         1 <0>         0.2150
     46 H14         2.1082    4.8104    0.5226 H         1 <0>         0.0824
     47 H15         1.7544    3.2428    1.2940 H         1 <0>         0.1051
     48 H16         2.1372    5.1379    2.9399 H         1 <0>         0.1099
     49 H17         3.2406    3.7569    3.1559 H         1 <0>         0.0574
     50 H18         6.0536    5.5045    1.6910 H         1 <0>         0.1102
     51 H19         5.5266    3.9708    2.4269 H         1 <0>         0.0571
     52 H20         5.7366    3.6119    0.0333 H         1 <0>         0.1043
     53 H21         4.7497    5.0552   -0.3136 H         1 <0>         0.0796
@<TRIPOS>BOND
     1    1    6 ar
     2    1    2 ar
     3    1   35 1
     4    2    3 ar
     5    2   36 1
     6    3    4 ar
     7    3   27 1
     8    4    5 ar
     9    4   37 1
    10    5    6 ar
    11    5   38 1
    12    6    7 1
    13    7    8 2
    14    7   39 1
    15    8    9 1
    16    8   40 1
    17    9   14 ar
    18    9   10 ar
    19   10   11 ar
    20   10   41 1
    21   11   12 ar
    22   11   15 1
    23   12   13 ar
    24   12   42 1
    25   13   14 ar
    26   13   43 1
    27   15   19 1
    28   15   16 2
    29   16   17 1
    30   16   44 1
    31   17   25 1
    32   17   18 2
    33   18   19 1
    34   18   21 1
    35   19   20 1
    36   21   22 2
    37   22   23 1
    38   22   45 1
    39   23   24 1
    40   23   25 am
    41   25   26 2
    42   27   28 2
    43   27   29 am
    44   29   34 1
    45   29   30 1
    46   30   31 1
    47   30   46 1
    48   30   47 1
    49   31   32 1
    50   31   48 1
    51   31   49 1
    52   32   33 1
    53   33   34 1
    54   33   50 1
    55   33   51 1
    56   34   52 1
    57   34   53 1
@<TRIPOS>MOLECULE
CHEMBL461139
   53    57     0     0     0
SMALL
USER_CHARGES

@<TRIPOS>ATOM
      1 C1         -0.0167    1.3796    0.0096 C.ar      1 <0>        -0.1137
      2 C2          1.1662    2.0887    0.0021 C.ar      1 <0>        -0.1094
      3 C3          2.3857    1.4065   -0.0132 C.ar      1 <0>        -0.0486
      4 C4          2.3967    0.0091   -0.0208 C.ar      1 <0>        -0.1107
      5 C5          1.2058   -0.6865   -0.0132 C.ar      1 <0>        -0.0924
      6 C6          0.0021   -0.0041    0.0020 C.ar      1 <0>        -0.0806
      7 C7         -1.2948   -0.7716    0.0108 C.3       1 <0>         0.0938
      8 N1         -1.7300   -1.0135   -1.3712 N.3       1 <0>        -0.5313
      9 C8         -2.0817    0.2470   -2.0412 C.3       1 <0>         0.0142
     10 C9         -2.4712   -0.0443   -3.4928 C.3       1 <0>         0.0629
     11 O1         -3.5469   -0.9865   -3.5127 O.3       1 <0>        -0.3865
     12 C10        -3.2386   -2.2260   -2.8693 C.3       1 <0>         0.0631
     13 C11        -2.8569   -1.9568   -1.4113 C.3       1 <0>         0.0171
     14 C12         3.6540    2.1571   -0.0218 C.2       1 <0>        -0.1233
     15 C13         4.8240    1.4982   -0.0365 C.2       1 <0>        -0.0891
     16 C14         6.0919    2.2485   -0.0450 C.2       1 <0>         0.0992
     17 C15         7.3038    1.5572   -0.0661 C.2       1 <0>        -0.0902
     18 C16         8.4983    2.2888   -0.0739 C.2       1 <0>         0.0153
     19 C17         8.4173    3.6915   -0.0601 C.2       1 <0>        -0.1750
     20 C18         7.1758    4.2946   -0.0395 C.2       1 <0>         0.0864
     21 N2          6.0703    3.5780   -0.0381 N.pl3     1 <0>        -0.5618
     22 C19         9.8056    1.6054   -0.0956 C.2       1 <0>         0.0350
     23 C20        11.1324    2.2797   -0.0995 C.2       1 <0>        -0.0861
     24 C21        12.0608    1.2928   -0.1210 C.2       1 <0>        -0.3341
     25 C22        11.3144    0.0110   -0.1304 C.2       1 <0>         0.3575
     26 N3          9.9848    0.3066   -0.1087 N.2       1 <0>        -0.5568
     27 N4         12.0141   -1.1018   -0.1507 N.2       1 <0>        -0.6465
     28 C23        13.3490   -1.0907   -0.1625 C.2       1 <0>         0.3885
     29 N5         14.0854   -0.0173   -0.1557 N.2       1 <0>        -0.6967
     30 C24        13.5328    1.2189   -0.1355 C.2       1 <0>         0.5461
     31 O2         14.2202    2.2228   -0.1296 O.2       1 <0>        -0.5612
     32 H1         -0.9599    1.9054    0.0260 H         1 <0>         0.1188
     33 H2          1.1500    3.1686    0.0078 H         1 <0>         0.1231
     34 H3          3.3354   -0.5248   -0.0330 H         1 <0>         0.1295
     35 H4          1.2128   -1.7664   -0.0194 H         1 <0>         0.1254
     36 H5         -1.1492   -1.7252    0.5181 H         1 <0>         0.0863
     37 H6         -2.0556   -0.1934    0.5353 H         1 <0>         0.0445
     38 H7         -2.9220    0.7113   -1.5250 H         1 <0>         0.0418
     39 H8         -1.2250    0.9206   -2.0223 H         1 <0>         0.0915
     40 H9         -2.7875    0.8795   -3.9772 H         1 <0>         0.0980
     41 H10        -1.6141   -0.4592   -4.0234 H         1 <0>         0.0609
     42 H11        -4.1099   -2.8800   -2.9026 H         1 <0>         0.0986
     43 H12        -2.4038   -2.7043   -3.3817 H         1 <0>         0.0612
     44 H13        -2.5660   -2.8919   -0.9326 H         1 <0>         0.0879
     45 H14        -3.7096   -1.5277   -0.8851 H         1 <0>         0.0432
     46 H15         3.6424    3.2370   -0.0162 H         1 <0>         0.1139
     47 H16         4.8355    0.4183   -0.0421 H         1 <0>         0.1438
     48 H17         7.3206    0.4773   -0.0758 H         1 <0>         0.1525
     49 H18         9.3157    4.2907   -0.0652 H         1 <0>         0.1420
     50 H19         7.1096    5.3725   -0.0285 H         1 <0>         0.1620
     51 H20        11.3183    3.3435   -0.0880 H         1 <0>         0.1220
     52 H21        13.8562   -2.0441   -0.1787 H         1 <0>         0.1592
     53 H22         5.2143    4.0343   -0.0275 H         1 <0>         0.4089
@<TRIPOS>BOND
     1    1    6 ar
     2    1    2 ar
     3    1   32 1
     4    2    3 ar
     5    2   33 1
     6    3    4 ar
     7    3   14 1
     8    4    5 ar
     9    4   34 1
    10    5    6 ar
    11    5   35 1
    12    6    7 1
    13    7    8 1
    14    7   36 1
    15    7   37 1
    16    8   13 1
    17    8    9 1
    18    9   10 1
    19    9   38 1
    20    9   39 1
    21   10   11 1
    22   10   40 1
    23   10   41 1
    24   11   12 1
    25   12   13 1
    26   12   42 1
    27   12   43 1
    28   13   44 1
    29   13   45 1
    30   14   15 2
    31   14   46 1
    32   15   16 1
    33   15   47 1
    34   16   21 1
    35   16   17 2
    36   17   18 1
    37   17   48 1
    38   18   19 1
    39   18   22 1
    40   19   20 2
    41   19   49 1
    42   20   21 1
    43   20   50 1
    44   21   53 1
    45   22   26 2
    46   22   23 1
    47   23   24 2
    48   23   51 1
    49   24   30 1
    50   24   25 1
    51   25   26 1
    52   25   27 2
    53   27   28 1
    54   28   29 2
    55   28   52 1
    56   29   30 1
    57   30   31 2
@<TRIPOS>MOLECULE
CHEMBL461139__1
   54    58     0     0     0
SMALL
USER_CHARGES

@<TRIPOS>ATOM
      1 C1         -0.0167    1.3796    0.0096 C.ar      1 <0>        -0.1152
      2 C2          1.1662    2.0887    0.0021 C.ar      1 <0>        -0.0986
      3 C3          2.3857    1.4065   -0.0132 C.ar      1 <0>        -0.0661
      4 C4          2.3967    0.0092   -0.0208 C.ar      1 <0>        -0.1072
      5 C5          1.2058   -0.6865   -0.0132 C.ar      1 <0>        -0.0975
      6 C6          0.0021   -0.0041    0.0020 C.ar      1 <0>        -0.0728
      7 C7         -1.2948   -0.7716    0.0108 C.3       1 <0>         0.0917
      8 N1         -1.7300   -1.0135   -1.3712 N.3       1 <0>        -0.5316
      9 C8         -2.0817    0.2470   -2.0412 C.3       1 <0>         0.0134
     10 C9         -2.4712   -0.0443   -3.4928 C.3       1 <0>         0.0632
     11 O1         -3.5469   -0.9865   -3.5127 O.3       1 <0>        -0.3853
     12 C10        -3.2386   -2.2260   -2.8693 C.3       1 <0>         0.0633
     13 C11        -2.8569   -1.9568   -1.4113 C.3       1 <0>         0.0167
     14 C12         3.6540    2.1571   -0.0218 C.2       1 <0>        -0.0527
     15 C13         4.8239    1.4983   -0.0365 C.2       1 <0>        -0.1308
     16 C14         6.0919    2.2486   -0.0450 C.ar      1 <0>         0.1733
     17 C15         7.3031    1.5581   -0.0661 C.ar      1 <0>        -0.1663
     18 C16         8.4952    2.2873   -0.0745 C.ar      1 <0>         0.0336
     19 C17         8.4172    3.6874   -0.0611 C.ar      1 <0>        -0.1622
     20 C18         7.1784    4.2937   -0.0404 C.ar      1 <0>         0.1194
     21 N2          6.0707    3.5790   -0.0381 N.ar      1 <0>        -0.4840
     22 C19         9.8034    1.6012   -0.0962 C.2       1 <0>         0.0608
     23 C20        11.0160    2.2140   -0.1003 C.2       1 <0>        -0.0799
     24 C21        11.9994    1.2031   -0.1226 C.2       1 <0>        -0.2660
     25 C22        11.3291   -0.0300   -0.1315 C.2       1 <0>         0.2977
     26 N3          9.9913    0.2348   -0.1097 N.pl3     1 <0>        -0.5265
     27 H1          9.2855   -0.4307   -0.1067 H         1 <0>         0.4243
     28 N4         12.0490   -1.1621   -0.1521 N.2       1 <0>        -0.5293
     29 C23        13.3502   -1.1504   -0.1640 C.2       1 <0>         0.3976
     30 N5         14.0804   -0.0073   -0.1567 N.am      1 <0>        -0.6510
     31 H2         15.0493   -0.0524   -0.1665 H         1 <0>         0.4247
     32 C24        13.4609    1.1962   -0.1364 C.2       1 <0>         0.5657
     33 O2         14.0981    2.2350   -0.1297 O.2       1 <0>        -0.5171
     34 H3         -0.9599    1.9054    0.0260 H         1 <0>         0.1214
     35 H4          1.1500    3.1686    0.0078 H         1 <0>         0.1273
     36 H5          3.3354   -0.5247   -0.0330 H         1 <0>         0.1256
     37 H6          1.2128   -1.7664   -0.0194 H         1 <0>         0.1249
     38 H7         -1.1492   -1.7253    0.5181 H         1 <0>         0.0865
     39 H8         -2.0556   -0.1934    0.5353 H         1 <0>         0.0463
     40 H9         -2.9220    0.7113   -1.5250 H         1 <0>         0.0433
     41 H10        -1.2250    0.9206   -2.0223 H         1 <0>         0.0911
     42 H11        -2.7875    0.8795   -3.9772 H         1 <0>         0.0988
     43 H12        -1.6141   -0.4592   -4.0234 H         1 <0>         0.0600
     44 H13        -4.1099   -2.8800   -2.9026 H         1 <0>         0.0994
     45 H14        -2.4038   -2.7043   -3.3817 H         1 <0>         0.0604
     46 H15        -2.5660   -2.8919   -0.9326 H         1 <0>         0.0877
     47 H16        -3.7096   -1.5277   -0.8851 H         1 <0>         0.0445
     48 H17         3.6424    3.2370   -0.0162 H         1 <0>         0.1362
     49 H18         4.8355    0.4183   -0.0421 H         1 <0>         0.1305
     50 H19         7.3197    0.4783   -0.0756 H         1 <0>         0.1305
     51 H20         9.3172    4.2845   -0.0666 H         1 <0>         0.1435
     52 H21         7.1148    5.3718   -0.0301 H         1 <0>         0.1644
     53 H22        11.1941    3.2791   -0.0890 H         1 <0>         0.1578
     54 H23        13.8733   -2.0952   -0.1800 H         1 <0>         0.2148
@<TRIPOS>BOND
     1    1    6 ar
     2    1    2 ar
     3    1   34 1
     4    2    3 ar
     5    2   35 1
     6    3    4 ar
     7    3   14 1
     8    4    5 ar
     9    4   36 1
    10    5    6 ar
    11    5   37 1
    12    6    7 1
    13    7    8 1
    14    7   38 1
    15    7   39 1
    16    8   13 1
    17    8    9 1
    18    9   10 1
    19    9   40 1
    20    9   41 1
    21   10   11 1
    22   10   42 1
    23   10   43 1
    24   11   12 1
    25   12   13 1
    26   12   44 1
    27   12   45 1
    28   13   46 1
    29   13   47 1
    30   14   15 2
    31   14   48 1
    32   15   16 1
    33   15   49 1
    34   16   21 ar
    35   16   17 ar
    36   17   18 ar
    37   17   50 1
    38   18   19 ar
    39   18   22 1
    40   19   20 ar
    41   19   51 1
    42   20   21 ar
    43   20   52 1
    44   22   26 1
    45   22   23 2
    46   23   24 1
    47   23   53 1
    48   24   32 1
    49   24   25 2
    50   25   26 1
    51   25   28 1
    52   26   27 1
    53   28   29 2
    54   29   30 1
    55   29   54 1
    56   30   31 1
    57   30   32 am
    58   32   33 2
@<TRIPOS>MOLECULE
CHEMBL390601
   35    38     0     0     0
SMALL
USER_CHARGES

@<TRIPOS>ATOM
      1 C1         -0.0169    1.3966    0.0097 C.ar      1 <0>        -0.1821
      2 C2          1.1780    2.0860    0.0020 C.ar      1 <0>         0.1247
      3 N1          2.3312    1.4472   -0.0129 N.ar      1 <0>        -0.4831
      4 C3          2.3999    0.1213   -0.0207 C.ar      1 <0>         0.1878
      5 C4          1.2428   -0.6488   -0.0133 C.ar      1 <0>        -0.1502
      6 C5          0.0021   -0.0041    0.0020 C.ar      1 <0>         0.0482
      7 C6         -1.2561   -0.7800    0.0103 C.2       1 <0>         0.0121
      8 C7         -1.3528   -2.1403    0.0100 C.2       1 <0>        -0.0755
      9 C8         -2.7192   -2.4479    0.0201 C.2       1 <0>        -0.2323
     10 C9         -3.4175   -1.2446    0.0247 C.2       1 <0>         0.0810
     11 N2         -2.5286   -0.2500    0.0258 N.pl3     1 <0>        -0.5110
     12 H1         -2.7434    0.6959    0.0336 H         1 <0>         0.4200
     13 C10        -4.9246   -1.2210    0.0305 C.3       1 <0>        -0.0710
     14 C11        -5.4400   -2.4777   -0.6715 C.3       1 <0>         0.1237
     15 N3         -4.7650   -3.6907   -0.2308 N.am      1 <0>        -0.7360
     16 C12        -3.4366   -3.7348    0.0276 C.2       1 <0>         0.5971
     17 O1         -2.8646   -4.7838    0.2548 O.2       1 <0>        -0.5313
     18 C13         3.7253   -0.5452   -0.0379 C.ar      1 <0>        -0.1580
     19 C14         3.8280   -1.9386   -0.0522 C.ar      1 <0>         0.1699
     20 N4          5.0286   -2.4916   -0.0673 N.ar      1 <0>        -0.5166
     21 C15         6.1174   -1.7482   -0.0689 C.ar      1 <0>         0.3023
     22 N5          6.0650   -0.4309   -0.0553 N.ar      1 <0>        -0.5203
     23 C16         4.9051    0.2031   -0.0461 C.ar      1 <0>         0.1893
     24 H2         -0.9557    1.9304    0.0260 H         1 <0>         0.1315
     25 H3          1.1686    3.1659    0.0079 H         1 <0>         0.1650
     26 H4          1.3010   -1.7272   -0.0200 H         1 <0>         0.1440
     27 H5         -0.5339   -2.8444    0.0028 H         1 <0>         0.1542
     28 H6         -5.2857   -1.2028    1.0588 H         1 <0>         0.0972
     29 H7         -5.2781   -0.3360   -0.4986 H         1 <0>         0.0990
     30 H8         -6.5072   -2.5779   -0.4733 H         1 <0>         0.0949
     31 H9         -5.2937   -2.3650   -1.7457 H         1 <0>         0.0678
     32 H10        -5.2883   -4.4996   -0.1179 H         1 <0>         0.4044
     33 H11         2.9406   -2.5541   -0.0506 H         1 <0>         0.1723
     34 H12         7.0822   -2.2334   -0.0814 H         1 <0>         0.2011
     35 H13         4.8701    1.2826   -0.0403 H         1 <0>         0.1800
@<TRIPOS>BOND
     1    1    6 ar
     2    1    2 ar
     3    1   24 1
     4    2    3 ar
     5    2   25 1
     6    3    4 ar
     7    4    5 ar
     8    4   18 1
     9    5    6 ar
    10    5   26 1
    11    6    7 1
    12    7   11 1
    13    7    8 2
    14    8    9 1
    15    8   27 1
    16    9   16 1
    17    9   10 2
    18   10   11 1
    19   10   13 1
    20   11   12 1
    21   13   14 1
    22   13   28 1
    23   13   29 1
    24   14   15 1
    25   14   30 1
    26   14   31 1
    27   15   16 am
    28   15   32 1
    29   16   17 2
    30   18   23 ar
    31   18   19 ar
    32   19   20 ar
    33   19   33 1
    34   20   21 ar
    35   21   22 ar
    36   21   34 1
    37   22   23 ar
    38   23   35 1
@<TRIPOS>MOLECULE
CHEMBL225975
   36    39     0     0     0
SMALL
USER_CHARGES

@<TRIPOS>ATOM
      1 C1         -0.0167    1.3785    0.0096 C.ar      1 <0>        -0.1767
      2 C2          1.1816    2.0721    0.0019 C.ar      1 <0>        -0.0351
      3 C3          2.3714    1.3394   -0.0134 C.ar      1 <0>        -0.1060
      4 C4          2.3056   -0.0525   -0.0202 C.ar      1 <0>         0.1221
      5 N1          1.1415   -0.6687   -0.0124 N.ar      1 <0>        -0.4829
      6 C5          0.0021   -0.0041    0.0020 C.ar      1 <0>         0.1088
      7 C6          3.6833    2.0322   -0.0227 C.ar      1 <0>         0.1860
      8 C7          4.8557    1.2852   -0.0436 C.ar      1 <0>        -0.1515
      9 C8          6.0830    1.9544   -0.0521 C.ar      1 <0>         0.0464
     10 C9          6.0742    3.3555   -0.0391 C.ar      1 <0>        -0.1850
     11 C10         4.8663    4.0207   -0.0185 C.ar      1 <0>         0.1216
     12 N2          3.7256    3.3590   -0.0164 N.ar      1 <0>        -0.4839
     13 C11         7.3564    1.2038   -0.0738 C.2       1 <0>         0.0137
     14 C12         7.4799   -0.1542   -0.0933 C.2       1 <0>        -0.0762
     15 C13         8.8522   -0.4345   -0.1102 C.2       1 <0>        -0.2323
     16 C14         9.5265    0.7824   -0.0985 C.2       1 <0>         0.0794
     17 N3          8.6180    1.7591   -0.0837 N.pl3     1 <0>        -0.5112
     18 H1          8.8140    2.7091   -0.0782 H         1 <0>         0.4197
     19 C15        11.0328    0.8360   -0.1064 C.3       1 <0>        -0.0707
     20 C16        11.5744   -0.4203    0.5765 C.3       1 <0>         0.1239
     21 N4         10.9227   -1.6399    0.1194 N.am      1 <0>        -0.7362
     22 C17         9.5949   -1.7066   -0.1376 C.2       1 <0>         0.5972
     23 O1          9.0434   -2.7633   -0.3793 O.2       1 <0>        -0.5312
     24 H2         -0.9558    1.9116    0.0259 H         1 <0>         0.1406
     25 H3          1.1963    3.1520    0.0072 H         1 <0>         0.1466
     26 H4          3.2174   -0.6313   -0.0324 H         1 <0>         0.1598
     27 H5         -0.9307   -0.5484    0.0080 H         1 <0>         0.1600
     28 H6          4.8189    0.2059   -0.0528 H         1 <0>         0.1445
     29 H7          7.0023    3.9079   -0.0447 H         1 <0>         0.1300
     30 H8          4.8543    5.1006   -0.0084 H         1 <0>         0.1627
     31 H9          6.6752   -0.8745   -0.0948 H         1 <0>         0.1543
     32 H10        11.3914    0.8762   -1.1349 H         1 <0>         0.0968
     33 H11        11.3697    1.7201    0.4349 H         1 <0>         0.0987
     34 H12        12.6429   -0.4964    0.3752 H         1 <0>         0.0947
     35 H13        11.4279   -0.3259    1.6525 H         1 <0>         0.0676
     36 H14        11.4617   -2.4365   -0.0064 H         1 <0>         0.4042
@<TRIPOS>BOND
     1    1    6 ar
     2    1    2 ar
     3    1   24 1
     4    2    3 ar
     5    2   25 1
     6    3    4 ar
     7    3    7 1
     8    4    5 ar
     9    4   26 1
    10    5    6 ar
    11    6   27 1
    12    7   12 ar
    13    7    8 ar
    14    8    9 ar
    15    8   28 1
    16    9   10 ar
    17    9   13 1
    18   10   11 ar
    19   10   29 1
    20   11   12 ar
    21   11   30 1
    22   13   17 1
    23   13   14 2
    24   14   15 1
    25   14   31 1
    26   15   22 1
    27   15   16 2
    28   16   17 1
    29   16   19 1
    30   17   18 1
    31   19   20 1
    32   19   32 1
    33   19   33 1
    34   20   21 1
    35   20   34 1
    36   20   35 1
    37   21   22 am
    38   21   36 1
    39   22   23 2
@<TRIPOS>MOLECULE
CHEMBL392596
   39    42     0     0     0
SMALL
USER_CHARGES

@<TRIPOS>ATOM
      1 C1         -0.0217    1.5185    0.0097 C.3       1 <0>        -0.1451
      2 C2          0.0008   -0.0113    0.0002 C.3       1 <0>        -0.0437
      3 C3         -1.4320   -0.5447    0.0247 C.3       1 <0>         0.1149
      4 N1         -2.0638   -0.3867    1.3283 N.am      1 <0>        -0.7150
      5 C4         -1.3921   -0.5685    2.4881 C.2       1 <0>         0.5939
      6 O1         -1.9642   -0.5616    3.5616 O.2       1 <0>        -0.5314
      7 C5          0.0639   -0.7760    2.3928 C.2       1 <0>         0.0024
      8 C6          0.7293   -0.5128    1.2200 C.2       1 <0>        -0.0919
      9 C7          2.0783   -0.7954    1.4301 C.ar      1 <0>        -0.1132
     10 C8          3.2009   -0.7102    0.5973 C.ar      1 <0>         0.0215
     11 C9          4.4255   -1.0848    1.1526 C.ar      1 <0>        -0.1710
     12 C10         4.5287   -1.5248    2.4777 C.ar      1 <0>        -0.0643
     13 C11         3.4407   -1.6121    3.3039 C.ar      1 <0>        -0.1267
     14 C12         2.2012   -1.2441    2.7766 C.ar      1 <0>         0.1305
     15 N2          0.9578   -1.2201    3.3351 N.pl3     1 <0>        -0.5362
     16 H1          0.7411   -1.4751    4.2455 H         1 <0>         0.4295
     17 C13         5.6433   -1.0159    0.3210 C.2       1 <0>         0.5546
     18 O2          5.5714   -0.6364   -0.8319 O.2       1 <0>        -0.4687
     19 N3          6.8347   -1.3735    0.8397 N.am      1 <0>        -0.6545
     20 C14         7.9655   -1.4102    0.0269 C.ar      1 <0>         0.3148
     21 C15         9.1746   -1.8796    0.5338 C.ar      1 <0>         0.0218
     22 N4         10.2434   -1.9128   -0.2393 N.ar      1 <0>        -0.4114
     23 C16        10.1671   -1.5010   -1.4938 C.ar      1 <0>         0.0106
     24 C17         8.9687   -1.0341   -2.0000 C.ar      1 <0>         0.0884
     25 N5          7.8921   -1.0034   -1.2332 N.ar      1 <0>        -0.4348
     26 H2          1.0005    1.8969    0.0026 H         1 <0>         0.0637
     27 H3         -0.5489    1.8796   -0.8734 H         1 <0>         0.0669
     28 H4         -0.5326    1.8688    0.9065 H         1 <0>         0.0558
     29 H5          0.5079   -0.3634   -0.8982 H         1 <0>         0.1067
     30 H6         -2.0206   -0.0086   -0.7197 H         1 <0>         0.0958
     31 H7         -1.4187   -1.6033   -0.2346 H         1 <0>         0.0715
     32 H8         -3.0015   -0.1414    1.3657 H         1 <0>         0.4113
     33 H9          3.1229   -0.3713   -0.4252 H         1 <0>         0.1498
     34 H10         5.4990   -1.8042    2.8609 H         1 <0>         0.1268
     35 H11         3.5372   -1.9529    4.3242 H         1 <0>         0.1407
     36 H12         6.9048   -1.6053    1.7790 H         1 <0>         0.4195
     37 H13         9.2376   -2.2157    1.5582 H         1 <0>         0.1697
     38 H14        11.0435   -1.5293   -2.1242 H         1 <0>         0.1724
     39 H15         8.9106   -0.6984   -3.0248 H         1 <0>         0.1744
@<TRIPOS>BOND
     1    1    2 1
     2    1   26 1
     3    1   27 1
     4    1   28 1
     5    2    8 1
     6    2    3 1
     7    2   29 1
     8    3    4 1
     9    3   30 1
    10    3   31 1
    11    4    5 am
    12    4   32 1
    13    5    6 2
    14    5    7 1
    15    7   15 1
    16    7    8 2
    17    8    9 1
    18    9   14 ar
    19    9   10 ar
    20   10   11 ar
    21   10   33 1
    22   11   12 ar
    23   11   17 1
    24   12   13 ar
    25   12   34 1
    26   13   14 ar
    27   13   35 1
    28   14   15 1
    29   15   16 1
    30   17   18 2
    31   17   19 am
    32   19   20 1
    33   19   36 1
    34   20   25 ar
    35   20   21 ar
    36   21   22 ar
    37   21   37 1
    38   22   23 ar
    39   23   24 ar
    40   23   38 1
    41   24   25 ar
    42   24   39 1
@<TRIPOS>MOLECULE
CHEMBL392596__1
   39    42     0     0     0
SMALL
USER_CHARGES

@<TRIPOS>ATOM
      1 C1         -0.0187    1.5327    0.0138 C.3       1 <0>        -0.1451
      2 C2          0.0038    0.0029    0.0044 C.3       1 <0>        -0.0436
      3 C3          0.7331   -0.4908   -1.2456 C.3       1 <0>         0.1149
      4 N1          2.1747   -0.2948   -1.1643 N.am      1 <0>        -0.7149
      5 C4          2.8692   -0.4767   -0.0180 C.2       1 <0>         0.5939
      6 O1          4.0848   -0.4366    0.0017 O.2       1 <0>        -0.5314
      7 C5          2.0871   -0.7251    1.2062 C.2       1 <0>         0.0024
      8 C6          0.7320   -0.4985    1.2243 C.2       1 <0>        -0.0919
      9 C7          0.2705   -0.8146    2.5014 C.ar      1 <0>        -0.1132
     10 C8         -1.0036   -0.7732    3.0813 C.ar      1 <0>         0.0215
     11 C9         -1.1002   -1.1715    4.4156 C.ar      1 <0>        -0.1710
     12 C10         0.0210   -1.5923    5.1409 C.ar      1 <0>        -0.0643
     13 C11         1.2725   -1.6375    4.5879 C.ar      1 <0>        -0.1267
     14 C12         1.4011   -1.2447    3.2541 C.ar      1 <0>         0.1304
     15 N2          2.4908   -1.1780    2.4375 N.pl3     1 <0>        -0.5361
     16 H1          3.3990   -1.4121    2.6849 H         1 <0>         0.4295
     17 C13        -2.4186   -1.1479    5.0793 C.2       1 <0>         0.5546
     18 O2         -3.4024   -0.7848    4.4642 O.2       1 <0>        -0.4686
     19 N3         -2.5316   -1.5288    6.3672 N.am      1 <0>        -0.6546
     20 C14        -3.7535   -1.4066    7.0251 C.ar      1 <0>         0.3147
     21 C15        -3.8476   -1.7000    8.3831 C.ar      1 <0>         0.0218
     22 N4         -5.0068   -1.5830    9.0025 N.ar      1 <0>        -0.4114
     23 C16        -6.0779   -1.1876    8.3352 C.ar      1 <0>         0.0106
     24 C17        -5.9882   -0.8960    6.9872 C.ar      1 <0>         0.0884
     25 N5         -4.8290   -1.0052    6.3609 N.ar      1 <0>        -0.4347
     26 H2          1.0035    1.9112    0.0068 H         1 <0>         0.0558
     27 H3         -0.5458    1.8938   -0.8693 H         1 <0>         0.0669
     28 H4         -0.5297    1.8831    0.9105 H         1 <0>         0.0636
     29 H5         -1.0178   -0.3772    0.0071 H         1 <0>         0.1067
     30 H6          0.5285   -1.5534   -1.3766 H         1 <0>         0.0715
     31 H7          0.3522    0.0491   -2.1125 H         1 <0>         0.0958
     32 H8          2.6546   -0.0240   -1.9626 H         1 <0>         0.4113
     33 H9         -1.8693   -0.4485    2.5232 H         1 <0>         0.1498
     34 H10        -0.1056   -1.8908    6.1711 H         1 <0>         0.1268
     35 H11         2.1275   -1.9640    5.1612 H         1 <0>         0.1407
     36 H12        -1.7622   -1.8881    6.8360 H         1 <0>         0.4195
     37 H13        -2.9732   -2.0232    8.9284 H         1 <0>         0.1697
     38 H14        -7.0254   -1.0928    8.8449 H         1 <0>         0.1724
     39 H15        -6.8654   -0.5738    6.4457 H         1 <0>         0.1744
@<TRIPOS>BOND
     1    1    2 1
     2    1   26 1
     3    1   27 1
     4    1   28 1
     5    2    8 1
     6    2    3 1
     7    2   29 1
     8    3    4 1
     9    3   30 1
    10    3   31 1
    11    4    5 am
    12    4   32 1
    13    5    6 2
    14    5    7 1
    15    7   15 1
    16    7    8 2
    17    8    9 1
    18    9   14 ar
    19    9   10 ar
    20   10   11 ar
    21   10   33 1
    22   11   12 ar
    23   11   17 1
    24   12   13 ar
    25   12   34 1
    26   13   14 ar
    27   13   35 1
    28   14   15 1
    29   15   16 1
    30   17   18 2
    31   17   19 am
    32   19   20 1
    33   19   36 1
    34   20   25 ar
    35   20   21 ar
    36   21   22 ar
    37   21   37 1
    38   22   23 ar
    39   23   24 ar
    40   23   38 1
    41   24   25 ar
    42   24   39 1
@<TRIPOS>MOLECULE
CHEMBL403154
   75    79     0     0     0
SMALL
USER_CHARGES

@<TRIPOS>ATOM
      1 C1         -6.2089    0.1841    4.7415 C.3       1 <0>        -0.1644
      2 C2         -6.1427   -1.3360    4.9022 C.3       1 <0>         0.1475
      3 C3         -6.1593   -1.9960    3.5242 C.3       1 <0>         0.1094
      4 N1         -5.8159   -3.4124    3.5794 N.am      1 <0>        -0.7293
      5 C4         -4.8283   -3.8762    4.3803 C.2       1 <0>         0.5911
      6 O1         -4.4205   -5.0189    4.2970 O.2       1 <0>        -0.5032
      7 C5         -4.2715   -2.9223    5.3601 C.2       1 <0>         0.0171
      8 N2         -4.9040   -1.7016    5.5985 N.pl3     1 <0>        -0.4543
      9 C6         -4.1847   -1.0192    6.5223 C.ar      1 <0>         0.1178
     10 C7         -4.3549    0.2387    7.0949 C.ar      1 <0>        -0.0530
     11 C8         -3.4056    0.6395    8.0383 C.ar      1 <0>        -0.1147
     12 C9         -2.3292   -0.1789    8.3993 C.ar      1 <0>        -0.1305
     13 C10        -2.1441   -1.4169    7.8480 C.ar      1 <0>        -0.0486
     14 C11        -3.0844   -1.8412    6.8951 C.ar      1 <0>        -0.0981
     15 C12        -3.1819   -3.0292    6.1489 C.2       1 <0>        -0.1014
     16 C13        -3.5421    1.9659    8.6737 C.2       1 <0>         0.5679
     17 O2         -4.4706    2.6910    8.3735 O.2       1 <0>        -0.4966
     18 N3         -2.6374    2.3723    9.5863 N.am      1 <0>        -0.6050
     19 C14        -2.7658    3.6186   10.1834 C.2       1 <0>         0.2749
     20 N4         -1.9921    4.1923   11.0824 N.2       1 <0>        -0.5068
     21 C15        -2.3204    5.4130   11.5154 C.2       1 <0>        -0.0113
     22 C16        -3.4392    6.0147   11.0114 C.2       1 <0>        -0.2385
     23 S1         -4.0168    4.8642    9.9277 S.3       1 <0>         0.2858
     24 C17        -1.4905    6.0985   12.5194 C.2       1 <0>         0.6040
     25 O3         -1.7986    7.2096   12.9071 O.2       1 <0>        -0.5274
     26 N5         -0.3893    5.4952   13.0092 N.am      1 <0>        -0.7162
     27 C18         0.4366    6.1775   14.0084 C.3       1 <0>         0.1361
     28 C19         1.4420    7.0925   13.3034 C.3       1 <0>        -0.1603
     29 C20         2.3531    7.7408   14.3480 C.3       1 <0>        -0.0269
     30 N6          3.0737    6.6982   15.0886 N.4       1 <0>        -0.3857
     31 C21         2.1194    5.8606   15.8250 C.3       1 <0>        -0.0024
     32 C22         1.1993    5.1400   14.8372 C.3       1 <0>        -0.1556
     33 C23         4.0039    7.3267   16.0359 C.3       1 <0>        -0.0036
     34 C24         5.2109    7.8792   15.2750 C.3       1 <0>        -0.0859
     35 C25         4.8078    9.1585   14.5390 C.3       1 <0>        -0.1727
     36 C26         6.3368    8.1921   16.2626 C.3       1 <0>        -0.1463
     37 C27         5.6951    6.8393   14.2625 C.3       1 <0>        -0.1732
     38 C28        -7.3466   -1.8168    5.7147 C.3       1 <0>        -0.1619
     39 H1         -5.2375    0.5580    4.4180 H         1 <0>         0.0741
     40 H2         -6.9626    0.4382    3.9961 H         1 <0>         0.0896
     41 H3         -6.4739    0.6392    5.6959 H         1 <0>         0.0792
     42 H4         -7.1557   -1.8912    3.0951 H         1 <0>         0.1110
     43 H5         -5.4443   -1.4846    2.8797 H         1 <0>         0.0789
     44 H6         -6.3085   -4.0391    3.0268 H         1 <0>         0.4129
     45 H7         -5.1832    0.8757    6.8219 H         1 <0>         0.1514
     46 H8         -1.6235    0.1778    9.1349 H         1 <0>         0.1225
     47 H9         -1.3105   -2.0413    8.1332 H         1 <0>         0.1450
     48 H10        -2.5090   -3.8725    6.1987 H         1 <0>         0.1636
     49 H11        -1.8966    1.7937    9.8258 H         1 <0>         0.4277
     50 H12        -3.8476    6.9865   11.2464 H         1 <0>         0.2098
     51 H13        -0.1437    4.6092   12.7000 H         1 <0>         0.4151
     52 H14        -0.2006    6.7709   14.6642 H         1 <0>         0.1063
     53 H15         2.0439    6.5057   12.6095 H         1 <0>         0.0892
     54 H16         0.9066    7.8682   12.7559 H         1 <0>         0.1174
     55 H17         3.0701    8.3930   13.8494 H         1 <0>         0.1484
     56 H18         1.7504    8.3275   15.0412 H         1 <0>         0.1321
     57 H19         2.6639    5.1247   16.4168 H         1 <0>         0.1359
     58 H20         1.5217    6.4874   16.4867 H         1 <0>         0.1329
     59 H21         0.4904    4.5200   15.3860 H         1 <0>         0.1206
     60 H22         1.7961    4.5126   14.1751 H         1 <0>         0.0941
     61 H23         3.4985    8.1407   16.5557 H         1 <0>         0.1327
     62 H24         4.3398    6.5856   16.7612 H         1 <0>         0.1321
     63 H25         3.9623    9.6201   15.0490 H         1 <0>         0.0700
     64 H26         5.6487    9.8520   14.5288 H         1 <0>         0.0838
     65 H27         4.5254    8.9148   13.5148 H         1 <0>         0.0700
     66 H28         6.6239    7.2807   16.7870 H         1 <0>         0.0673
     67 H29         7.1966    8.5857   15.7205 H         1 <0>         0.0779
     68 H30         5.9919    8.9330   16.9839 H         1 <0>         0.0697
     69 H31         4.9261    6.6834   13.5059 H         1 <0>         0.0539
     70 H32         6.6081    7.1948   13.7849 H         1 <0>         0.0916
     71 H33         5.8959    5.8987   14.7755 H         1 <0>         0.0732
     72 H34        -8.2664   -1.5464    5.1961 H         1 <0>         0.0850
     73 H35        -7.2988   -2.8998    5.8288 H         1 <0>         0.0667
     74 H36        -7.3323   -1.3469    6.6981 H         1 <0>         0.0700
     75 H37         3.5929    6.1248   14.4407 H         1 <0>         0.4202
@<TRIPOS>BOND
     1    1    2 1
     2    1   39 1
     3    1   40 1
     4    1   41 1
     5    2    8 1
     6    2    3 1
     7    2   38 1
     8    3    4 1
     9    3   42 1
    10    3   43 1
    11    4    5 am
    12    4   44 1
    13    5    6 2
    14    5    7 1
    15    7   15 2
    16    7    8 1
    17    8    9 1
    18    9   14 ar
    19    9   10 ar
    20   10   11 ar
    21   10   45 1
    22   11   12 ar
    23   11   16 1
    24   12   13 ar
    25   12   46 1
    26   13   14 ar
    27   13   47 1
    28   14   15 1
    29   15   48 1
    30   16   17 2
    31   16   18 am
    32   18   19 1
    33   18   49 1
    34   19   23 1
    35   19   20 2
    36   20   21 1
    37   21   22 2
    38   21   24 1
    39   22   23 1
    40   22   50 1
    41   24   25 2
    42   24   26 am
    43   26   27 1
    44   26   51 1
    45   27   32 1
    46   27   28 1
    47   27   52 1
    48   28   29 1
    49   28   53 1
    50   28   54 1
    51   29   30 1
    52   29   55 1
    53   29   56 1
    54   30   31 1
    55   30   33 1
    56   30   75 1
    57   31   32 1
    58   31   57 1
    59   31   58 1
    60   32   59 1
    61   32   60 1
    62   33   34 1
    63   33   61 1
    64   33   62 1
    65   34   35 1
    66   34   36 1
    67   34   37 1
    68   35   63 1
    69   35   64 1
    70   35   65 1
    71   36   66 1
    72   36   67 1
    73   36   68 1
    74   37   69 1
    75   37   70 1
    76   37   71 1
    77   38   72 1
    78   38   73 1
    79   38   74 1
@<TRIPOS>MOLECULE
CHEMBL257834
   76    81     0     0     0
SMALL
USER_CHARGES

@<TRIPOS>ATOM
      1 C1          1.3304   -1.3208    0.8768 C.3       1 <0>        -0.1670
      2 C2          0.6911   -1.7445   -0.4471 C.3       1 <0>        -0.0862
      3 C3          1.6626   -2.6397   -1.2190 C.3       1 <0>        -0.1746
      4 C4         -0.5999   -2.5161   -0.1661 C.3       1 <0>        -0.1460
      5 C5          0.3714   -0.5015   -1.2799 C.3       1 <0>        -0.0042
      6 N1          1.6004    0.2742   -1.4935 N.4       1 <0>        -0.3850
      7 C6          1.2551    1.6829   -1.7190 C.3       1 <0>        -0.0020
      8 C7          2.5351    2.5093   -1.8614 C.3       1 <0>        -0.1558
      9 C8          3.3456    1.9842   -3.0499 C.3       1 <0>         0.1362
     10 C9          3.6363    0.4955   -2.8390 C.3       1 <0>        -0.1605
     11 C10         2.3155   -0.2563   -2.6604 C.3       1 <0>        -0.0267
     12 N2          4.6081    2.7211   -3.1458 N.am      1 <0>        -0.7161
     13 C11         5.2433    2.8183   -4.3305 C.2       1 <0>         0.6040
     14 O1          4.7684    2.2942   -5.3201 O.2       1 <0>        -0.5273
     15 C12         6.5119    3.5588   -4.4268 C.2       1 <0>        -0.0114
     16 C13         7.1625    3.6686   -5.6237 C.2       1 <0>        -0.2384
     17 S1          8.5185    4.5799   -5.2208 S.3       1 <0>         0.2866
     18 C14         8.1821    4.7871   -3.4813 C.2       1 <0>         0.2745
     19 N3          7.0428    4.1391   -3.3466 N.2       1 <0>        -0.5065
     20 N4          8.9245    5.4599   -2.5208 N.am      1 <0>        -0.6048
     21 C15        10.0751    6.0716   -2.8649 C.2       1 <0>         0.5675
     22 O2         10.4626    6.0341   -4.0166 O.2       1 <0>        -0.4956
     23 C16        10.8652    6.7875   -1.8428 C.ar      1 <0>        -0.1136
     24 C17        10.4030    6.8131   -0.5220 C.ar      1 <0>        -0.1305
     25 C18        11.0865    7.4581    0.4718 C.ar      1 <0>        -0.0472
     26 C19        12.2832    8.1001    0.1145 C.ar      1 <0>        -0.0982
     27 C20        13.2084    8.8346    0.8772 C.2       1 <0>        -0.0988
     28 C21        14.1858    9.2454    0.0427 C.2       1 <0>         0.0185
     29 N5         13.9243    8.7774   -1.2476 N.pl3     1 <0>        -0.4408
     30 C22        12.7635    8.0811   -1.2252 C.ar      1 <0>         0.1205
     31 C23        12.0547    7.4145   -2.2218 C.ar      1 <0>        -0.0637
     32 C24        14.8506    9.0651   -2.3440 C.3       1 <0>         0.1201
     33 C25        14.2078    8.9716   -3.7327 C.3       1 <0>        -0.1382
     34 C26        14.6108    7.4867   -3.7289 C.3       1 <0>        -0.1571
     35 C27        15.7258    7.8708   -2.7405 C.3       1 <0>        -0.1402
     36 C28        15.6341   10.3541   -2.1150 C.3       1 <0>         0.1208
     37 N6         16.1187   10.4662   -0.7427 N.am      1 <0>        -0.7283
     38 C29        15.3953   10.0443    0.3178 C.2       1 <0>         0.5910
     39 O3         15.7284   10.3134    1.4561 O.2       1 <0>        -0.5055
     40 H1          2.3075   -0.8783    0.6833 H         1 <0>         0.0523
     41 H2          0.6915   -0.5889    1.3710 H         1 <0>         0.0733
     42 H3          1.4475   -2.1934    1.5194 H         1 <0>         0.0881
     43 H4          1.6990   -3.6239   -0.7520 H         1 <0>         0.0854
     44 H5          1.3237   -2.7391   -2.2502 H         1 <0>         0.0735
     45 H6          2.6570   -2.1937   -1.2048 H         1 <0>         0.0635
     46 H7         -1.2920   -1.8784    0.3838 H         1 <0>         0.0685
     47 H8         -1.0553   -2.8180   -1.1093 H         1 <0>         0.0689
     48 H9         -0.3721   -3.4017    0.4272 H         1 <0>         0.0780
     49 H10        -0.0386   -0.8052   -2.2431 H         1 <0>         0.1327
     50 H11        -0.3584    0.1120   -0.7515 H         1 <0>         0.1326
     51 H12         0.6635    1.7701   -2.6303 H         1 <0>         0.1334
     52 H13         0.6756    2.0543   -0.8738 H         1 <0>         0.1359
     53 H14         2.2765    3.5546   -2.0306 H         1 <0>         0.1207
     54 H15         3.1273    2.4230   -0.9504 H         1 <0>         0.0941
     55 H16         2.7738    2.1173   -3.9683 H         1 <0>         0.1065
     56 H17         4.1649    0.1013   -3.7070 H         1 <0>         0.1177
     57 H18         4.2514    0.3674   -1.9483 H         1 <0>         0.0892
     58 H19         2.5189   -1.3165   -2.5102 H         1 <0>         0.1488
     59 H20         1.7014   -0.1277   -3.5517 H         1 <0>         0.1324
     60 H21         4.9868    3.1391   -2.3567 H         1 <0>         0.4151
     61 H22         6.8779    3.2702   -6.5863 H         1 <0>         0.2098
     62 H23         8.6153    5.4898   -1.6019 H         1 <0>         0.4277
     63 H24         9.4791    6.3088   -0.2804 H         1 <0>         0.1232
     64 H25        10.7214    7.4727    1.4881 H         1 <0>         0.1459
     65 H26        13.1476    9.0337    1.9369 H         1 <0>         0.1649
     66 H27        12.4068    7.3868   -3.2424 H         1 <0>         0.1609
     67 H28        13.1296    9.1318   -3.7269 H         1 <0>         0.0856
     68 H29        14.7206    9.5616   -4.4923 H         1 <0>         0.1125
     69 H30        13.8540    6.8302   -3.2994 H         1 <0>         0.0947
     70 H31        14.9828    7.1329   -4.6904 H         1 <0>         0.0867
     71 H32        16.6600    8.1552   -3.2247 H         1 <0>         0.1065
     72 H33        15.8668    7.1468   -1.9379 H         1 <0>         0.0789
     73 H34        16.4863   10.3757   -2.7942 H         1 <0>         0.1111
     74 H35        14.9881   11.2045   -2.3329 H         1 <0>         0.0796
     75 H36        16.9923   10.8577   -0.5863 H         1 <0>         0.4128
     76 H37         2.1893    0.2009   -0.6774 H         1 <0>         0.4190
@<TRIPOS>BOND
     1    1    2 1
     2    1   40 1
     3    1   41 1
     4    1   42 1
     5    2    3 1
     6    2    4 1
     7    2    5 1
     8    3   43 1
     9    3   44 1
    10    3   45 1
    11    4   46 1
    12    4   47 1
    13    4   48 1
    14    5    6 1
    15    5   49 1
    16    5   50 1
    17    6   11 1
    18    6    7 1
    19    6   76 1
    20    7    8 1
    21    7   51 1
    22    7   52 1
    23    8    9 1
    24    8   53 1
    25    8   54 1
    26    9   10 1
    27    9   12 1
    28    9   55 1
    29   10   11 1
    30   10   56 1
    31   10   57 1
    32   11   58 1
    33   11   59 1
    34   12   13 am
    35   12   60 1
    36   13   14 2
    37   13   15 1
    38   15   19 1
    39   15   16 2
    40   16   17 1
    41   16   61 1
    42   17   18 1
    43   18   19 2
    44   18   20 1
    45   20   21 am
    46   20   62 1
    47   21   22 2
    48   21   23 1
    49   23   31 ar
    50   23   24 ar
    51   24   25 ar
    52   24   63 1
    53   25   26 ar
    54   25   64 1
    55   26   30 ar
    56   26   27 1
    57   27   28 2
    58   27   65 1
    59   28   38 1
    60   28   29 1
    61   29   30 1
    62   29   32 1
    63   30   31 ar
    64   31   66 1
    65   32   35 1
    66   32   33 1
    67   32   36 1
    68   33   34 1
    69   33   67 1
    70   33   68 1
    71   34   35 1
    72   34   69 1
    73   34   70 1
    74   35   71 1
    75   35   72 1
    76   36   37 1
    77   36   73 1
    78   36   74 1
    79   37   38 am
    80   37   75 1
    81   38   39 2
@<TRIPOS>MOLECULE
CHEMBL598324
   54    59     0     0     0
SMALL
USER_CHARGES

@<TRIPOS>ATOM
      1 C1         -0.0167    1.3775    0.0096 C.ar      1 <0>        -0.0853
      2 C2          1.1673    2.0882    0.0021 C.ar      1 <0>        -0.1205
      3 C3          2.3859    1.4124   -0.0136 C.ar      1 <0>        -0.0213
      4 C4          2.4058    0.0202   -0.0213 C.ar      1 <0>        -0.1077
      5 C5          1.2128   -0.6861   -0.0132 C.ar      1 <0>         0.1715
      6 C6          0.0021   -0.0041    0.0020 C.ar      1 <0>        -0.1418
      7 N1          1.2278   -2.0868   -0.0214 N.pl3     1 <0>        -0.3139
      8 C7          0.1419   -2.8881   -0.0204 C.2       1 <0>         0.1017
      9 C8          0.5806   -4.1815   -0.0301 C.2       1 <0>        -0.2336
     10 C9          1.9960   -4.1496   -0.0373 C.2       1 <0>         0.3694
     11 N2          2.3716   -2.8936   -0.0381 N.2       1 <0>        -0.3462
     12 N3          2.8427   -5.2603   -0.0476 N.pl3     1 <0>        -0.8360
     13 C10        -0.2688   -5.3952   -0.0327 C.ar      1 <0>         0.0359
     14 C11        -1.3040   -5.5224    0.8951 C.ar      1 <0>        -0.1246
     15 C12        -2.0913   -6.6400    0.8980 C.ar      1 <0>        -0.0471
     16 C13        -1.8590   -7.6553   -0.0294 C.ar      1 <0>        -0.1450
     17 C14        -0.8232   -7.5329   -0.9626 C.ar      1 <0>        -0.0422
     18 C15        -0.0355   -6.4068   -0.9672 C.ar      1 <0>        -0.1240
     19 C16        -0.5938   -8.6411   -1.9557 C.3       1 <0>        -0.1039
     20 C17        -0.9181   -9.9886   -1.3148 C.3       1 <0>         0.1134
     21 N4         -2.2389   -9.9689   -0.6923 N.am      1 <0>        -0.7275
     22 C18        -2.6923   -8.8742   -0.0496 C.2       1 <0>         0.5651
     23 O1         -3.7737   -8.8901    0.5060 O.2       1 <0>        -0.5350
     24 C19         3.6592    2.1747   -0.0227 C.ar      1 <0>        -0.0122
     25 C20         4.8764    1.4958   -0.0442 C.ar      1 <0>        -0.1240
     26 C21         6.0589    2.2103   -0.0525 C.ar      1 <0>        -0.0618
     27 C22         6.0334    3.5880   -0.0392 C.ar      1 <0>        -0.1380
     28 C23         4.8290    4.2815   -0.0177 C.ar      1 <0>         0.1443
     29 C24         3.6360    3.5649   -0.0154 C.ar      1 <0>        -0.1261
     30 N5          5.0647    5.6572   -0.0076 N.am      1 <0>        -0.6607
     31 C25         6.3761    5.9488   -0.0211 C.2       1 <0>         0.5286
     32 O2          6.8675    7.0576   -0.0170 O.2       1 <0>        -0.5005
     33 C26         7.1254    4.6336   -0.0428 C.3       1 <0>        -0.1167
     34 H1         -0.9600    1.9031    0.0260 H         1 <0>         0.1373
     35 H2          1.1488    3.1680    0.0081 H         1 <0>         0.1320
     36 H3          3.3477   -0.5079   -0.0339 H         1 <0>         0.1439
     37 H4         -0.9266   -0.5553    0.0083 H         1 <0>         0.1320
     38 H5         -0.8885   -2.5648   -0.0128 H         1 <0>         0.1822
     39 H6          2.4687   -6.1552   -0.0505 H         1 <0>         0.4117
     40 H7          3.8048   -5.1367   -0.0519 H         1 <0>         0.4071
     41 H8         -1.4833   -4.7357    1.6130 H         1 <0>         0.1304
     42 H9         -2.8912   -6.7366    1.6172 H         1 <0>         0.1368
     43 H10         0.7627   -6.3061   -1.6876 H         1 <0>         0.1300
     44 H11        -1.2362   -8.4887   -2.8230 H         1 <0>         0.0896
     45 H12         0.4489   -8.6327   -2.2731 H         1 <0>         0.0984
     46 H13        -0.8950  -10.7639   -2.0807 H         1 <0>         0.0909
     47 H14        -0.1684  -10.2138   -0.5563 H         1 <0>         0.0688
     48 H15        -2.8004  -10.7582   -0.7422 H         1 <0>         0.4059
     49 H16         4.8951    0.4160   -0.0539 H         1 <0>         0.1355
     50 H17         7.0043    1.6884   -0.0692 H         1 <0>         0.1346
     51 H18         2.6916    4.0888   -0.0036 H         1 <0>         0.1321
     52 H19         4.3622    6.3260    0.0072 H         1 <0>         0.4144
     53 H20         7.7508    4.5357    0.8446 H         1 <0>         0.1259
     54 H21         7.7286    4.5526   -0.9471 H         1 <0>         0.1259
@<TRIPOS>BOND
     1    1    6 ar
     2    1    2 ar
     3    1   34 1
     4    2    3 ar
     5    2   35 1
     6    3    4 ar
     7    3   24 1
     8    4    5 ar
     9    4   36 1
    10    5    6 ar
    11    5    7 1
    12    6   37 1
    13    7   11 1
    14    7    8 1
    15    8    9 2
    16    8   38 1
    17    9   10 1
    18    9   13 1
    19   10   11 2
    20   10   12 1
    21   12   39 1
    22   12   40 1
    23   13   18 ar
    24   13   14 ar
    25   14   15 ar
    26   14   41 1
    27   15   16 ar
    28   15   42 1
    29   16   22 1
    30   16   17 ar
    31   17   18 ar
    32   17   19 1
    33   18   43 1
    34   19   20 1
    35   19   44 1
    36   19   45 1
    37   20   21 1
    38   20   46 1
    39   20   47 1
    40   21   22 am
    41   21   48 1
    42   22   23 2
    43   24   29 ar
    44   24   25 ar
    45   25   26 ar
    46   25   49 1
    47   26   27 ar
    48   26   50 1
    49   27   33 1
    50   27   28 ar
    51   28   29 ar
    52   28   30 1
    53   29   51 1
    54   30   31 am
    55   30   52 1
    56   31   32 2
    57   31   33 1
    58   33   53 1
    59   33   54 1
@<TRIPOS>MOLECULE
CHEMBL437943
   40    43     0     0     0
SMALL
USER_CHARGES

@<TRIPOS>ATOM
      1 C1         -0.0123    1.5403    0.0086 C.3       1 <0>        -0.1451
      2 C2          0.0045    0.0103    0.0061 C.3       1 <0>        -0.0435
      3 C3         -1.4303   -0.5176    0.0356 C.3       1 <0>         0.1148
      4 N1         -2.0592   -0.3513    1.3395 N.am      1 <0>        -0.7149
      5 C4         -1.3864   -0.5313    2.4989 C.2       1 <0>         0.5938
      6 O1         -1.9567   -0.5181    3.5733 O.2       1 <0>        -0.5311
      7 C5          0.0687   -0.7446    2.4022 C.2       1 <0>         0.0026
      8 C6          0.7332   -0.4883    1.2269 C.2       1 <0>        -0.0921
      9 C7          2.0816   -0.7741    1.4361 C.ar      1 <0>        -0.1138
     10 C8          3.2033   -0.6958    0.6012 C.ar      1 <0>         0.0221
     11 C9          4.4277   -1.0710    1.1565 C.ar      1 <0>        -0.1723
     12 C10         4.5318   -1.5044    2.4837 C.ar      1 <0>        -0.0629
     13 C11         3.4447   -1.5849    3.3119 C.ar      1 <0>        -0.1270
     14 C12         2.2053   -1.2167    2.7846 C.ar      1 <0>         0.1312
     15 N2          0.9625   -1.1885    3.3447 N.pl3     1 <0>        -0.5360
     16 H1          0.7463   -1.4388    4.2565 H         1 <0>         0.4297
     17 C13         5.6445   -1.0087    0.3229 C.2       1 <0>         0.5657
     18 O2          5.5720   -0.6342   -0.8316 O.2       1 <0>        -0.5202
     19 N3          6.8358   -1.3669    0.8416 N.am      1 <0>        -0.6673
     20 C14         7.9716   -1.4023    0.0259 C.ar      1 <0>         0.0940
     21 C15         8.1360   -0.4717   -0.9975 C.ar      1 <0>        -0.0777
     22 C16         9.2774   -0.5474   -1.7784 C.ar      1 <0>        -0.1522
     23 C17        10.2088   -1.5360   -1.5190 C.ar      1 <0>         0.0818
     24 N4         10.0233   -2.4024   -0.5426 N.ar      1 <0>        -0.4662
     25 C18         8.9546   -2.3621    0.2281 C.ar      1 <0>         0.0781
     26 H2          1.0112    1.9149   -0.0019 H         1 <0>         0.0635
     27 H3         -0.5398    1.8993   -0.8751 H         1 <0>         0.0669
     28 H4         -0.5204    1.8965    0.9048 H         1 <0>         0.0559
     29 H5          0.5086   -0.3477   -0.8916 H         1 <0>         0.1065
     30 H6         -2.0182    0.0173   -0.7103 H         1 <0>         0.0959
     31 H7         -1.4214   -1.5774   -0.2190 H         1 <0>         0.0715
     32 H8         -2.9959   -0.1024    1.3774 H         1 <0>         0.4114
     33 H9          3.1247   -0.3617   -0.4228 H         1 <0>         0.1495
     34 H10         5.5020   -1.7841    2.8669 H         1 <0>         0.1276
     35 H11         3.5419   -1.9210    4.3337 H         1 <0>         0.1408
     36 H12         6.9055   -1.6002    1.7805 H         1 <0>         0.4128
     37 H13         7.3917    0.2898   -1.1778 H         1 <0>         0.1501
     38 H14         9.4379    0.1573   -2.5809 H         1 <0>         0.1399
     39 H15        11.1006   -1.5995   -2.1249 H         1 <0>         0.1589
     40 H16         8.8401   -3.0857    1.0216 H         1 <0>         0.1573
@<TRIPOS>BOND
     1    1    2 1
     2    1   26 1
     3    1   27 1
     4    1   28 1
     5    2    8 1
     6    2    3 1
     7    2   29 1
     8    3    4 1
     9    3   30 1
    10    3   31 1
    11    4    5 am
    12    4   32 1
    13    5    6 2
    14    5    7 1
    15    7   15 1
    16    7    8 2
    17    8    9 1
    18    9   14 ar
    19    9   10 ar
    20   10   11 ar
    21   10   33 1
    22   11   12 ar
    23   11   17 1
    24   12   13 ar
    25   12   34 1
    26   13   14 ar
    27   13   35 1
    28   14   15 1
    29   15   16 1
    30   17   18 2
    31   17   19 am
    32   19   20 1
    33   19   36 1
    34   20   25 ar
    35   20   21 ar
    36   21   22 ar
    37   21   37 1
    38   22   23 ar
    39   22   38 1
    40   23   24 ar
    41   23   39 1
    42   24   25 ar
    43   25   40 1
@<TRIPOS>MOLECULE
CHEMBL437943__1
   40    43     0     0     0
SMALL
USER_CHARGES

@<TRIPOS>ATOM
      1 C1         -0.0147    1.5117    0.0053 C.3       1 <0>        -0.1453
      2 C2         -0.0009   -0.0182   -0.0026 C.3       1 <0>        -0.0435
      3 C3          0.7229   -0.5174   -1.2535 C.3       1 <0>         0.1149
      4 N1          2.1658   -0.3295   -1.1754 N.am      1 <0>        -0.7149
      5 C4          2.8616   -0.5136   -0.0303 C.2       1 <0>         0.5937
      6 O1          4.0775   -0.4800   -0.0131 O.2       1 <0>        -0.5311
      7 C5          2.0806   -0.7563    1.1958 C.2       1 <0>         0.0027
      8 C6          0.7270   -0.5225    1.2164 C.2       1 <0>        -0.0921
      9 C7          0.2665   -0.8339    2.4950 C.ar      1 <0>        -0.1140
     10 C8         -1.0061   -0.7847    3.0775 C.ar      1 <0>         0.0221
     11 C9         -1.1021   -1.1806    4.4125 C.ar      1 <0>        -0.1724
     12 C10         0.0182   -1.6065    5.1360 C.ar      1 <0>        -0.0628
     13 C11         1.2683   -1.6589    4.5806 C.ar      1 <0>        -0.1270
     14 C12         1.3963   -1.2691    3.2459 C.ar      1 <0>         0.1313
     15 N2          2.4843   -1.2101    2.4267 N.pl3     1 <0>        -0.5360
     16 H1          3.3917   -1.4491    2.6725 H         1 <0>         0.4296
     17 C13        -2.4191   -1.1488    5.0789 C.2       1 <0>         0.5658
     18 O2         -3.4023   -0.7812    4.4653 O.2       1 <0>        -0.5202
     19 N3         -2.5315   -1.5274    6.3676 N.am      1 <0>        -0.6673
     20 C14        -3.7584   -1.4047    7.0281 C.ar      1 <0>         0.0940
     21 C15        -4.9536   -1.6138    6.3437 C.ar      1 <0>        -0.0777
     22 C16        -6.1429   -1.4807    7.0409 C.ar      1 <0>        -0.1522
     23 C17        -6.1057   -1.1473    8.3823 C.ar      1 <0>         0.0817
     24 N4         -4.9573   -0.9554    9.0013 N.ar      1 <0>        -0.4662
     25 C18        -3.8028   -1.0781    8.3770 C.ar      1 <0>         0.0781
     26 H2          1.0096    1.8843   -0.0042 H         1 <0>         0.0559
     27 H3         -0.5416    1.8748   -0.8771 H         1 <0>         0.0669
     28 H4         -0.5219    1.8659    0.9027 H         1 <0>         0.0635
     29 H5         -1.0247   -0.3925    0.0027 H         1 <0>         0.1065
     30 H6          0.5121   -1.5790   -1.3829 H         1 <0>         0.0715
     31 H7          0.3433    0.0237   -2.1202 H         1 <0>         0.0959
     32 H8          2.6455   -0.0619   -1.9749 H         1 <0>         0.4114
     33 H9         -1.8713   -0.4561    2.5208 H         1 <0>         0.1495
     34 H10        -0.1080   -1.9033    6.1668 H         1 <0>         0.1276
     35 H11         2.1228   -1.9890    5.1528 H         1 <0>         0.1408
     36 H12        -1.7617   -1.8849    6.8370 H         1 <0>         0.4128
     37 H13        -4.9528   -1.8730    5.2953 H         1 <0>         0.1502
     38 H14        -7.0884   -1.6352    6.5425 H         1 <0>         0.1399
     39 H15        -7.0302   -1.0422    8.9307 H         1 <0>         0.1589
     40 H16        -2.8824   -0.9184    8.9190 H         1 <0>         0.1572
@<TRIPOS>BOND
     1    1    2 1
     2    1   26 1
     3    1   27 1
     4    1   28 1
     5    2    8 1
     6    2    3 1
     7    2   29 1
     8    3    4 1
     9    3   30 1
    10    3   31 1
    11    4    5 am
    12    4   32 1
    13    5    6 2
    14    5    7 1
    15    7   15 1
    16    7    8 2
    17    8    9 1
    18    9   14 ar
    19    9   10 ar
    20   10   11 ar
    21   10   33 1
    22   11   12 ar
    23   11   17 1
    24   12   13 ar
    25   12   34 1
    26   13   14 ar
    27   13   35 1
    28   14   15 1
    29   15   16 1
    30   17   18 2
    31   17   19 am
    32   19   20 1
    33   19   36 1
    34   20   25 ar
    35   20   21 ar
    36   21   22 ar
    37   21   37 1
    38   22   23 ar
    39   22   38 1
    40   23   24 ar
    41   23   39 1
    42   24   25 ar
    43   25   40 1
@<TRIPOS>MOLECULE
CHEMBL181069
   37    40     0     0     0
SMALL
USER_CHARGES

@<TRIPOS>ATOM
      1 C1         -0.0167    1.3806    0.0096 C.ar      1 <0>        -0.0757
      2 C2          1.1687    2.0983    0.0022 C.ar      1 <0>        -0.1654
      3 C3          2.3804    1.4310   -0.0078 C.ar      1 <0>         0.1489
      4 C4          2.4017    0.0403   -0.0234 C.ar      1 <0>        -0.1448
      5 C5          1.2177   -0.6779   -0.0191 C.ar      1 <0>         0.0906
      6 C6          0.0021   -0.0041    0.0020 C.ar      1 <0>         0.0211
      7 O1         -1.1743   -0.6903    0.0178 O.3       1 <0>        -0.3072
      8 C7         -1.1213   -2.0660   -0.3754 C.3       1 <0>         0.0208
      9 C8          0.0637   -2.7259    0.3426 C.3       1 <0>         0.0202
     10 O2          1.2596   -2.0383   -0.0402 O.3       1 <0>        -0.3034
     11 O3          3.5635    2.0964    0.0085 O.3       1 <0>        -0.2958
     12 C9          3.5740    3.4806   -0.3508 C.3       1 <0>         0.1082
     13 C10         4.9163    4.0820    0.1018 C.3       1 <0>        -0.0711
     14 C11         5.0772    3.7585    1.5730 C.2       1 <0>         0.2788
     15 C12         3.8962    3.8958    2.4428 C.2       1 <0>        -0.2559
     16 C13         2.6541    4.0927    1.8889 C.2       1 <0>         0.3103
     17 C14         2.4511    4.1912    0.4085 C.3       1 <0>        -0.1046
     18 C15         1.1050    3.6040   -0.0021 C.3       1 <0>        -0.0678
     19 N1          1.5762    4.2013    2.7103 N.pl3     1 <0>        -0.8263
     20 C16         4.0424    3.8236    3.8655 C.1       1 <0>         0.2581
     21 N2          4.1584    3.7664    4.9941 N.1       1 <0>        -0.4417
     22 N3          6.2195    3.3722    2.0520 N.2       1 <0>        -0.6901
     23 H1         -0.9610    1.9044    0.0260 H         1 <0>         0.1381
     24 H2          3.3467   -0.4822   -0.0394 H         1 <0>         0.1448
     25 H3         -2.0476   -2.5654   -0.0912 H         1 <0>         0.1237
     26 H4         -0.9820   -2.1349   -1.4542 H         1 <0>         0.0788
     27 H5         -0.0732   -2.6525    1.4215 H         1 <0>         0.0794
     28 H6          0.1329   -3.7738    0.0508 H         1 <0>         0.1253
     29 H7          3.4343    3.5937   -1.4259 H         1 <0>         0.1082
     30 H8          5.7329    3.6381   -0.4675 H         1 <0>         0.1098
     31 H9          2.4586    5.2446    0.1286 H         1 <0>         0.1316
     32 H10         0.8499    3.9516   -1.0032 H         1 <0>         0.1011
     33 H11         0.3382    3.9348    0.6984 H         1 <0>         0.0851
     34 H12         1.6908    4.1397    3.6715 H         1 <0>         0.4078
     35 H13         0.6926    4.3405    2.3351 H         1 <0>         0.4073
     36 H14         6.3056    3.1689    2.9966 H         1 <0>         0.3345
     37 H15         4.9065    5.1625   -0.0419 H         1 <0>         0.1171
@<TRIPOS>BOND
     1    1    6 ar
     2    1    2 ar
     3    1   23 1
     4    2   18 1
     5    2    3 ar
     6    3    4 ar
     7    3   11 1
     8    4    5 ar
     9    4   24 1
    10    5   10 1
    11    5    6 ar
    12    6    7 1
    13    7    8 1
    14    8    9 1
    15    8   25 1
    16    8   26 1
    17    9   10 1
    18    9   27 1
    19    9   28 1
    20   11   12 1
    21   12   17 1
    22   12   13 1
    23   12   29 1
    24   13   14 1
    25   13   30 1
    26   13   37 1
    27   14   15 1
    28   14   22 2
    29   15   16 2
    30   15   20 1
    31   16   17 1
    32   16   19 1
    33   17   18 1
    34   17   31 1
    35   18   32 1
    36   18   33 1
    37   19   34 1
    38   19   35 1
    39   20   21 3
    40   22   36 1
@<TRIPOS>MOLECULE
CHEMBL181069__1
   37    40     0     0     0
SMALL
USER_CHARGES

@<TRIPOS>ATOM
      1 C1          0.0695    1.2174    0.1455 C.ar      1 <0>        -0.0751
      2 C2          1.2308    1.9718    0.1017 C.ar      1 <0>        -0.1692
      3 C3          2.4633    1.3444    0.1186 C.ar      1 <0>         0.1546
      4 C4          2.5293   -0.0443    0.1636 C.ar      1 <0>        -0.1531
      5 C5          1.3694   -0.7993    0.2023 C.ar      1 <0>         0.0897
      6 C6          0.1326   -0.1648    0.1988 C.ar      1 <0>         0.0132
      7 O1         -1.0209   -0.8870    0.2521 O.3       1 <0>        -0.3085
      8 C7         -0.9254   -2.2763   -0.0804 C.3       1 <0>         0.0212
      9 C8          0.2834   -2.8653    0.6593 C.3       1 <0>         0.0207
     10 O2          1.4549   -2.1572    0.2404 O.3       1 <0>        -0.3050
     11 O3          3.6234    2.0475    0.1075 O.3       1 <0>        -0.3072
     12 C9          3.5988    3.4157   -0.3076 C.3       1 <0>         0.1917
     13 C10         4.8911    4.0621    0.1745 C.2       1 <0>        -0.4559
     14 C11         5.0968    4.0275    1.6369 C.2       1 <0>         0.3386
     15 C12         3.8761    4.1552    2.4740 C.2       1 <0>        -0.2314
     16 C13         2.6405    4.1822    1.8784 C.2       1 <0>         0.3327
     17 C14         2.4434    4.1257    0.3995 C.3       1 <0>        -0.1066
     18 C15         1.1195    3.4726    0.0285 C.3       1 <0>        -0.0672
     19 N1          1.5405    4.2642    2.6746 N.pl3     1 <0>        -0.8284
     20 C16         3.9888    4.2492    3.8985 C.1       1 <0>         0.2565
     21 N2          4.0782    4.3238    5.0285 N.1       1 <0>        -0.4439
     22 N3          6.2881    3.8923    2.1657 N.pl3     1 <0>        -0.7983
     23 H1         -0.8912    1.7108    0.1426 H         1 <0>         0.1352
     24 H2          3.4907   -0.5363    0.1681 H         1 <0>         0.1418
     25 H3         -1.8339   -2.7920    0.2309 H         1 <0>         0.1221
     26 H4         -0.7886   -2.3884   -1.1559 H         1 <0>         0.0774
     27 H5          0.1485   -2.7489    1.7347 H         1 <0>         0.0781
     28 H6          0.3853   -3.9223    0.4135 H         1 <0>         0.1235
     29 H7          3.4952    3.4905   -1.3901 H         1 <0>         0.0918
     30 H8          5.6033    4.5114   -0.5017 H         1 <0>         0.1324
     31 H9          2.4075    5.1504    0.0296 H         1 <0>         0.1266
     32 H10         0.8468    3.7639   -0.9858 H         1 <0>         0.0970
     33 H11         0.3464    3.8099    0.7189 H         1 <0>         0.0790
     34 H12         1.6313    4.1833    3.6370 H         1 <0>         0.4063
     35 H13         0.6654    4.4036    2.2800 H         1 <0>         0.4090
     36 H14         7.0667    3.8115    1.5929 H         1 <0>         0.4134
     37 H15         6.3914    3.8731    3.1300 H         1 <0>         0.3973
@<TRIPOS>BOND
     1    1    6 ar
     2    1    2 ar
     3    1   23 1
     4    2   18 1
     5    2    3 ar
     6    3    4 ar
     7    3   11 1
     8    4    5 ar
     9    4   24 1
    10    5   10 1
    11    5    6 ar
    12    6    7 1
    13    7    8 1
    14    8    9 1
    15    8   25 1
    16    8   26 1
    17    9   10 1
    18    9   27 1
    19    9   28 1
    20   11   12 1
    21   12   17 1
    22   12   13 1
    23   12   29 1
    24   13   14 1
    25   13   30 1
    26   14   15 1
    27   14   22 2
    28   15   16 2
    29   15   20 1
    30   16   17 1
    31   16   19 1
    32   17   18 1
    33   17   31 1
    34   18   32 1
    35   18   33 1
    36   19   34 1
    37   19   35 1
    38   20   21 3
    39   22   36 1
    40   22   37 1
@<TRIPOS>MOLECULE
CHEMBL181069__2
   37    40     0     0     0
SMALL
USER_CHARGES

@<TRIPOS>ATOM
      1 C1         -0.0167    1.3807    0.0096 C.ar      1 <0>        -0.0756
      2 C2          1.1684    2.0986    0.0022 C.ar      1 <0>        -0.1559
      3 C3          2.3800    1.4307   -0.0135 C.ar      1 <0>         0.1406
      4 C4          2.4018    0.0403   -0.0251 C.ar      1 <0>        -0.1413
      5 C5          1.2178   -0.6779   -0.0177 C.ar      1 <0>         0.0894
      6 C6          0.0021   -0.0041    0.0020 C.ar      1 <0>         0.0248
      7 O1         -1.1745   -0.6900    0.0184 O.3       1 <0>        -0.3066
      8 C7         -1.1213   -2.0686   -0.3642 C.3       1 <0>         0.0203
      9 C8          0.0640   -2.7226    0.3589 C.3       1 <0>         0.0203
     10 O2          1.2597   -2.0383   -0.0316 O.3       1 <0>        -0.3027
     11 O3          3.5672    2.0957   -0.0134 O.3       1 <0>        -0.2957
     12 C9          3.5481    3.4786   -0.3720 C.3       1 <0>         0.1104
     13 C10         4.9034    4.1159   -0.0477 C.3       1 <0>        -0.0672
     14 C11         4.8411    5.5663   -0.4807 C.2       1 <0>         0.2737
     15 C12         3.6102    6.3182   -0.1813 C.2       1 <0>        -0.2625
     16 C13         2.4880    5.6554    0.2496 C.2       1 <0>         0.3158
     17 C14         2.4555    4.1708    0.4479 C.3       1 <0>        -0.1029
     18 C15         1.1013    3.6061    0.0104 C.3       1 <0>        -0.0705
     19 N1          1.3626    6.3738    0.5058 N.pl3     1 <0>        -0.8258
     20 C16         3.5844    7.7412   -0.3393 C.1       1 <0>         0.2563
     21 N2          3.5640    8.8701   -0.4646 N.1       1 <0>        -0.4361
     22 N3          5.8374    6.1268   -1.0945 N.2       1 <0>        -0.6828
     23 H1         -0.9611    1.9043    0.0260 H         1 <0>         0.1395
     24 H2          3.3469   -0.4821   -0.0404 H         1 <0>         0.1473
     25 H3         -2.0474   -2.5660   -0.0763 H         1 <0>         0.1242
     26 H4         -0.9819   -2.1456   -1.4425 H         1 <0>         0.0789
     27 H5         -0.0722   -2.6397    1.4372 H         1 <0>         0.0807
     28 H6          0.1328   -3.7730    0.0762 H         1 <0>         0.1256
     29 H7          3.3284    3.5790   -1.4349 H         1 <0>         0.0923
     30 H8          5.0928    4.0575    1.0241 H         1 <0>         0.1069
     31 H9          2.6018    3.9460    1.5043 H         1 <0>         0.1276
     32 H10         0.8637    3.9652   -0.9910 H         1 <0>         0.0915
     33 H11         0.3290    3.9321    0.7070 H         1 <0>         0.0907
     34 H12         1.3630    7.3360    0.3833 H         1 <0>         0.4095
     35 H13         0.5591    5.9241    0.8111 H         1 <0>         0.4099
     36 H14         5.7796    7.0568   -1.3643 H         1 <0>         0.3384
     37 H15         5.6944    3.6007   -0.5927 H         1 <0>         0.1110
@<TRIPOS>BOND
     1    1    6 ar
     2    1    2 ar
     3    1   23 1
     4    2   18 1
     5    2    3 ar
     6    3    4 ar
     7    3   11 1
     8    4    5 ar
     9    4   24 1
    10    5   10 1
    11    5    6 ar
    12    6    7 1
    13    7    8 1
    14    8    9 1
    15    8   25 1
    16    8   26 1
    17    9   10 1
    18    9   27 1
    19    9   28 1
    20   11   12 1
    21   12   17 1
    22   12   13 1
    23   12   29 1
    24   13   14 1
    25   13   30 1
    26   13   37 1
    27   14   15 1
    28   14   22 2
    29   15   16 2
    30   15   20 1
    31   16   17 1
    32   16   19 1
    33   17   18 1
    34   17   31 1
    35   18   32 1
    36   18   33 1
    37   19   34 1
    38   19   35 1
    39   20   21 3
    40   22   36 1
@<TRIPOS>MOLECULE
CHEMBL181069__3
   37    40     0     0     0
SMALL
USER_CHARGES

@<TRIPOS>ATOM
      1 C1         -0.0167    1.3807    0.0096 C.ar      1 <0>        -0.0756
      2 C2          1.1684    2.0986    0.0022 C.ar      1 <0>        -0.1577
      3 C3          2.3800    1.4305   -0.0145 C.ar      1 <0>         0.1447
      4 C4          2.4018    0.0401   -0.0245 C.ar      1 <0>        -0.1456
      5 C5          1.2178   -0.6779   -0.0168 C.ar      1 <0>         0.0886
      6 C6          0.0021   -0.0041    0.0020 C.ar      1 <0>         0.0196
      7 O1         -1.1743   -0.6903    0.0181 O.3       1 <0>        -0.3075
      8 C7         -1.1206   -2.0691   -0.3639 C.3       1 <0>         0.0207
      9 C8          0.0643   -2.7227    0.3599 C.3       1 <0>         0.0204
     10 O2          1.2600   -2.0383   -0.0297 O.3       1 <0>        -0.3037
     11 O3          3.5704    2.0938   -0.0205 O.3       1 <0>        -0.2935
     12 C9          3.5392    3.4715   -0.3916 C.3       1 <0>         0.1950
     13 C10         4.8677    4.1310   -0.0887 C.2       1 <0>        -0.4245
     14 C11         4.9094    5.5915   -0.3153 C.2       1 <0>         0.3022
     15 C12         3.6525    6.3319   -0.0342 C.2       1 <0>        -0.2256
     16 C13         2.5121    5.6479    0.3008 C.2       1 <0>         0.3246
     17 C14         2.4572    4.1625    0.4447 C.3       1 <0>        -0.1092
     18 C15         1.0995    3.6077    0.0131 C.3       1 <0>        -0.0700
     19 N1          1.3722    6.3592    0.5135 N.pl3     1 <0>        -0.8292
     20 C16         3.6316    7.7615   -0.1137 C.1       1 <0>         0.2560
     21 N2          3.6150    8.8957   -0.1767 N.1       1 <0>        -0.4410
     22 N3          5.9914    6.1972   -0.7388 N.pl3     1 <0>        -0.8040
     23 H1         -0.9611    1.9044    0.0260 H         1 <0>         0.1378
     24 H2          3.3469   -0.4823   -0.0386 H         1 <0>         0.1454
     25 H3         -2.0468   -2.5665   -0.0762 H         1 <0>         0.1230
     26 H4         -0.9807   -2.1465   -1.4421 H         1 <0>         0.0779
     27 H5         -0.0723   -2.6395    1.4381 H         1 <0>         0.0796
     28 H6          0.1334   -3.7733    0.0775 H         1 <0>         0.1244
     29 H7          3.2998    3.5621   -1.4511 H         1 <0>         0.0701
     30 H8          5.7226    3.5753    0.2674 H         1 <0>         0.1341
     31 H9          2.6080    3.9057    1.4932 H         1 <0>         0.1212
     32 H10         0.8584    3.9693   -0.9865 H         1 <0>         0.0883
     33 H11         0.3322    3.9329    0.7156 H         1 <0>         0.0857
     34 H12         1.3801    7.3253    0.4270 H         1 <0>         0.4069
     35 H13         0.5515    5.9003    0.7517 H         1 <0>         0.4103
     36 H14         6.7969    5.6857   -0.9132 H         1 <0>         0.4125
     37 H15         5.9869    7.1572   -0.8779 H         1 <0>         0.3982
@<TRIPOS>BOND
     1    1    6 ar
     2    1    2 ar
     3    1   23 1
     4    2   18 1
     5    2    3 ar
     6    3    4 ar
     7    3   11 1
     8    4    5 ar
     9    4   24 1
    10    5   10 1
    11    5    6 ar
    12    6    7 1
    13    7    8 1
    14    8    9 1
    15    8   25 1
    16    8   26 1
    17    9   10 1
    18    9   27 1
    19    9   28 1
    20   11   12 1
    21   12   17 1
    22   12   13 1
    23   12   29 1
    24   13   14 1
    25   13   30 1
    26   14   15 1
    27   14   22 2
    28   15   16 2
    29   15   20 1
    30   16   17 1
    31   16   19 1
    32   17   18 1
    33   17   31 1
    34   18   32 1
    35   18   33 1
    36   19   34 1
    37   19   35 1
    38   20   21 3
    39   22   36 1
    40   22   37 1
@<TRIPOS>MOLECULE
CHEMBL181069__4
   37    40     0     0     0
SMALL
USER_CHARGES

@<TRIPOS>ATOM
      1 C1         -0.0167    1.3806    0.0096 C.ar      1 <0>        -0.0750
      2 C2          1.1685    2.0985    0.0022 C.ar      1 <0>        -0.1557
      3 C3          2.3800    1.4306   -0.0135 C.ar      1 <0>         0.1395
      4 C4          2.4018    0.0402   -0.0215 C.ar      1 <0>        -0.1417
      5 C5          1.2178   -0.6779   -0.0153 C.ar      1 <0>         0.0894
      6 C6          0.0021   -0.0041    0.0020 C.ar      1 <0>         0.0244
      7 O1         -1.1746   -0.6900    0.0157 O.3       1 <0>        -0.3063
      8 C7         -1.1203   -2.0678   -0.3698 C.3       1 <0>         0.0204
      9 C8          0.0627   -2.7232    0.3557 C.3       1 <0>         0.0202
     10 O2          1.2597   -2.0383   -0.0286 O.3       1 <0>        -0.3031
     11 O3          3.5670    2.0958   -0.0253 O.3       1 <0>        -0.2992
     12 C9          3.5535    3.4734    0.3536 C.3       1 <0>         0.1122
     13 C10         4.9035    4.1160    0.0176 C.3       1 <0>        -0.1261
     14 C11         4.8474    5.5600    0.4724 C.2       1 <0>         0.2726
     15 C12         3.6118    6.3155    0.2026 C.2       1 <0>        -0.1933
     16 C13         2.4834    5.6583   -0.2203 C.2       1 <0>         0.3026
     17 C14         2.4479    4.1766   -0.4391 C.3       1 <0>        -0.1002
     18 C15         1.1009    3.6060    0.0126 C.3       1 <0>        -0.0707
     19 N1          1.3539    6.3798   -0.4487 N.pl3     1 <0>        -0.8264
     20 C16         3.5881    7.7361    0.3812 C.1       1 <0>         0.2764
     21 N2          3.5693    8.8631    0.5228 N.1       1 <0>        -0.4429
     22 N3          5.8527    6.1121    1.0790 N.2       1 <0>        -0.6834
     23 H1         -0.9611    1.9043    0.0260 H         1 <0>         0.1401
     24 H2          3.3470   -0.4823   -0.0330 H         1 <0>         0.1462
     25 H3         -2.0473   -2.5658   -0.0858 H         1 <0>         0.1244
     26 H4         -0.9775   -2.1426   -1.4478 H         1 <0>         0.0789
     27 H5         -0.0770   -2.6425    1.4337 H         1 <0>         0.0806
     28 H6          0.1324   -3.7731    0.0711 H         1 <0>         0.1256
     29 H7          3.3503    3.5583    1.4211 H         1 <0>         0.0913
     30 H8          5.7030    3.5934    0.5428 H         1 <0>         0.0985
     31 H9          2.5774    3.9667   -1.5008 H         1 <0>         0.1257
     32 H10         0.3178    3.9397   -0.6681 H         1 <0>         0.0918
     33 H11         0.8788    3.9532    1.0216 H         1 <0>         0.0922
     34 H12         1.3560    7.3401   -0.3123 H         1 <0>         0.4106
     35 H13         0.5460    5.9341   -0.7480 H         1 <0>         0.4098
     36 H14         6.6582    5.5989    1.2485 H         1 <0>         0.3439
     37 H15         5.0762    4.0732   -1.0577 H         1 <0>         0.1067
@<TRIPOS>BOND
     1    1    6 ar
     2    1    2 ar
     3    1   23 1
     4    2   18 1
     5    2    3 ar
     6    3    4 ar
     7    3   11 1
     8    4    5 ar
     9    4   24 1
    10    5   10 1
    11    5    6 ar
    12    6    7 1
    13    7    8 1
    14    8    9 1
    15    8   25 1
    16    8   26 1
    17    9   10 1
    18    9   27 1
    19    9   28 1
    20   11   12 1
    21   12   17 1
    22   12   13 1
    23   12   29 1
    24   13   14 1
    25   13   30 1
    26   13   37 1
    27   14   15 1
    28   14   22 2
    29   15   16 2
    30   15   20 1
    31   16   17 1
    32   16   19 1
    33   17   18 1
    34   17   31 1
    35   18   32 1
    36   18   33 1
    37   19   34 1
    38   19   35 1
    39   20   21 3
    40   22   36 1
@<TRIPOS>MOLECULE
CHEMBL181069__5
   37    40     0     0     0
SMALL
USER_CHARGES

@<TRIPOS>ATOM
      1 C1         -0.0167    1.3807    0.0096 C.ar      1 <0>        -0.0752
      2 C2          1.1685    2.0987    0.0022 C.ar      1 <0>        -0.1583
      3 C3          2.3799    1.4303   -0.0132 C.ar      1 <0>         0.1448
      4 C4          2.4018    0.0400   -0.0233 C.ar      1 <0>        -0.1451
      5 C5          1.2177   -0.6780   -0.0167 C.ar      1 <0>         0.0888
      6 C6          0.0021   -0.0041    0.0020 C.ar      1 <0>         0.0190
      7 O1         -1.1743   -0.6903    0.0181 O.3       1 <0>        -0.3075
      8 C7         -1.1207   -2.0686   -0.3656 C.3       1 <0>         0.0208
      9 C8          0.0642   -2.7232    0.3575 C.3       1 <0>         0.0205
     10 O2          1.2600   -2.0384   -0.0304 O.3       1 <0>        -0.3037
     11 O3          3.5703    2.0935   -0.0180 O.3       1 <0>        -0.2934
     12 C9          3.5449    3.4648    0.3765 C.3       1 <0>         0.1950
     13 C10         4.8689    4.1294    0.0653 C.2       1 <0>        -0.4246
     14 C11         4.9140    5.5859    0.3161 C.2       1 <0>         0.3023
     15 C12         3.6532    6.3306    0.0656 C.2       1 <0>        -0.2256
     16 C13         2.5081    5.6522   -0.2645 C.2       1 <0>         0.3245
     17 C14         2.4507    4.1692   -0.4324 C.3       1 <0>        -0.1091
     18 C15         1.0994    3.6077    0.0117 C.3       1 <0>        -0.0700
     19 N1          1.3654    6.3669   -0.4486 N.pl3     1 <0>        -0.8292
     20 C16         3.6335    7.7587    0.1694 C.1       1 <0>         0.2560
     21 N2          3.6179    8.8916    0.2517 N.1       1 <0>        -0.4410
     22 N3          6.0019    6.1844    0.7350 N.pl3     1 <0>        -0.8040
     23 H1         -0.9611    1.9044    0.0260 H         1 <0>         0.1378
     24 H2          3.3469   -0.4825   -0.0366 H         1 <0>         0.1454
     25 H3         -2.0469   -2.5664   -0.0785 H         1 <0>         0.1229
     26 H4         -0.9808   -2.1448   -1.4439 H         1 <0>         0.0778
     27 H5         -0.0726   -2.6415    1.4358 H         1 <0>         0.0796
     28 H6          0.1333   -3.7734    0.0737 H         1 <0>         0.1243
     29 H7          3.3208    3.5377    1.4408 H         1 <0>         0.0701
     30 H8          5.7184    3.5799   -0.3126 H         1 <0>         0.1341
     31 H9          2.5857    3.9298   -1.4871 H         1 <0>         0.1213
     32 H10         0.3219    3.9417   -0.6754 H         1 <0>         0.0857
     33 H11         0.8725    3.9562    1.0192 H         1 <0>         0.0881
     34 H12         1.3747    7.3314   -0.3458 H         1 <0>         0.4069
     35 H13         0.5412    5.9120   -0.6827 H         1 <0>         0.4103
     36 H14         6.8095    5.6700    0.8898 H         1 <0>         0.4126
     37 H15         5.9994    7.1419    0.8904 H         1 <0>         0.3982
@<TRIPOS>BOND
     1    1    6 ar
     2    1    2 ar
     3    1   23 1
     4    2   18 1
     5    2    3 ar
     6    3    4 ar
     7    3   11 1
     8    4    5 ar
     9    4   24 1
    10    5   10 1
    11    5    6 ar
    12    6    7 1
    13    7    8 1
    14    8    9 1
    15    8   25 1
    16    8   26 1
    17    9   10 1
    18    9   27 1
    19    9   28 1
    20   11   12 1
    21   12   17 1
    22   12   13 1
    23   12   29 1
    24   13   14 1
    25   13   30 1
    26   14   15 1
    27   14   22 2
    28   15   16 2
    29   15   20 1
    30   16   17 1
    31   16   19 1
    32   17   18 1
    33   17   31 1
    34   18   32 1
    35   18   33 1
    36   19   34 1
    37   19   35 1
    38   20   21 3
    39   22   36 1
    40   22   37 1
@<TRIPOS>MOLECULE
CHEMBL181069__6
   37    40     0     0     0
SMALL
USER_CHARGES

@<TRIPOS>ATOM
      1 C1         -0.0167    1.3804    0.0096 C.ar      1 <0>        -0.0752
      2 C2          1.1688    2.0993    0.0022 C.ar      1 <0>        -0.1543
      3 C3          2.3790    1.4298   -0.0088 C.ar      1 <0>         0.1375
      4 C4          2.4014    0.0396   -0.0215 C.ar      1 <0>        -0.1424
      5 C5          1.2174   -0.6785   -0.0168 C.ar      1 <0>         0.0889
      6 C6          0.0021   -0.0041    0.0020 C.ar      1 <0>         0.0247
      7 O1         -1.1747   -0.6899    0.0156 O.3       1 <0>        -0.3064
      8 C7         -1.1209   -2.0670   -0.3724 C.3       1 <0>         0.0203
      9 C8          0.0621   -2.7240    0.3515 C.3       1 <0>         0.0204
     10 O2          1.2591   -2.0388   -0.0328 O.3       1 <0>        -0.3033
     11 O3          3.5612    2.0987    0.0021 O.3       1 <0>        -0.2923
     12 C9          3.5656    3.4821   -0.3205 C.3       1 <0>         0.1118
     13 C10         3.3677    3.6950   -1.8241 C.3       1 <0>        -0.1647
     14 C11         3.5334    5.1792   -2.0875 C.2       1 <0>         0.2719
     15 C12         2.9533    6.1179   -1.1122 C.2       1 <0>        -0.1919
     16 C13         2.4503    5.6639    0.0809 C.2       1 <0>         0.2969
     17 C14         2.4450    4.1994    0.4373 C.3       1 <0>        -0.0927
     18 C15         1.1020    3.6035   -0.0005 C.3       1 <0>        -0.0676
     19 N1          1.9420    6.5609    0.9671 N.pl3     1 <0>        -0.8242
     20 C16         2.9143    7.5177   -1.4117 C.1       1 <0>         0.2750
     21 N2          2.8834    8.6281   -1.6493 N.1       1 <0>        -0.4428
     22 N3          4.1653    5.6076   -3.1367 N.2       1 <0>        -0.6856
     23 H1         -0.9612    1.9039    0.0260 H         1 <0>         0.1399
     24 H2          3.3467   -0.4826   -0.0353 H         1 <0>         0.1457
     25 H3         -2.0480   -2.5652   -0.0889 H         1 <0>         0.1242
     26 H4         -0.9785   -2.1399   -1.4506 H         1 <0>         0.0788
     27 H5         -0.0770   -2.6451    1.4297 H         1 <0>         0.0805
     28 H6          0.1314   -3.7734    0.0651 H         1 <0>         0.1253
     29 H7          4.5249    3.9138   -0.0350 H         1 <0>         0.1306
     30 H8          4.1170    3.1326   -2.3812 H         1 <0>         0.0980
     31 H9          2.5846    4.0771    1.5114 H         1 <0>         0.1195
     32 H10         0.8635    3.9520   -1.0054 H         1 <0>         0.0940
     33 H11         0.3214    3.9309    0.6862 H         1 <0>         0.0932
     34 H12         1.9385    7.5067    0.7519 H         1 <0>         0.4105
     35 H13         1.5829    6.2551    1.8147 H         1 <0>         0.4113
     36 H14         4.5413    4.9748   -3.7684 H         1 <0>         0.3433
     37 H15         2.3676    3.3749   -2.1166 H         1 <0>         0.1014
@<TRIPOS>BOND
     1    1    6 ar
     2    1    2 ar
     3    1   23 1
     4    2   18 1
     5    2    3 ar
     6    3    4 ar
     7    3   11 1
     8    4    5 ar
     9    4   24 1
    10    5   10 1
    11    5    6 ar
    12    6    7 1
    13    7    8 1
    14    8    9 1
    15    8   25 1
    16    8   26 1
    17    9   10 1
    18    9   27 1
    19    9   28 1
    20   11   12 1
    21   12   17 1
    22   12   13 1
    23   12   29 1
    24   13   14 1
    25   13   30 1
    26   13   37 1
    27   14   15 1
    28   14   22 2
    29   15   16 2
    30   15   20 1
    31   16   17 1
    32   16   19 1
    33   17   18 1
    34   17   31 1
    35   18   32 1
    36   18   33 1
    37   19   34 1
    38   19   35 1
    39   20   21 3
    40   22   36 1
@<TRIPOS>MOLECULE
CHEMBL181069__7
   37    40     0     0     0
SMALL
USER_CHARGES

@<TRIPOS>ATOM
      1 C1         -0.0167    1.3804    0.0096 C.ar      1 <0>        -0.0781
      2 C2          1.1690    2.0995    0.0022 C.ar      1 <0>        -0.1463
      3 C3          2.3786    1.4293   -0.0065 C.ar      1 <0>         0.1512
      4 C4          2.4014    0.0393   -0.0198 C.ar      1 <0>        -0.1477
      5 C5          1.2172   -0.6789   -0.0163 C.ar      1 <0>         0.0860
      6 C6          0.0021   -0.0041    0.0020 C.ar      1 <0>         0.0183
      7 O1         -1.1750   -0.6898    0.0141 O.3       1 <0>        -0.3082
      8 C7         -1.1208   -2.0662   -0.3765 C.3       1 <0>         0.0207
      9 C8          0.0615   -2.7250    0.3469 C.3       1 <0>         0.0209
     10 O2          1.2590   -2.0392   -0.0347 O.3       1 <0>        -0.3046
     11 O3          3.5590    2.0997    0.0124 O.3       1 <0>        -0.2932
     12 C9          3.5736    3.4831   -0.2877 C.3       1 <0>         0.1901
     13 C10         3.4290    3.7332   -1.7727 C.2       1 <0>        -0.4464
     14 C11         3.4523    5.1613   -2.1612 C.2       1 <0>         0.2942
     15 C12         2.8823    6.1107   -1.1712 C.2       1 <0>        -0.2214
     16 C13         2.4333    5.6658    0.0430 C.2       1 <0>         0.3145
     17 C14         2.4387    4.2106    0.4369 C.3       1 <0>        -0.0983
     18 C15         1.1018    3.6024   -0.0043 C.3       1 <0>        -0.0555
     19 N1          1.9608    6.5781    0.9346 N.pl3     1 <0>        -0.8279
     20 C16         2.8021    7.5045   -1.4898 C.1       1 <0>         0.2539
     21 N2          2.7385    8.6102   -1.7426 N.1       1 <0>        -0.4411
     22 N3          3.9456    5.5630   -3.3068 N.pl3     1 <0>        -0.8064
     23 H1         -0.9612    1.9038    0.0260 H         1 <0>         0.1361
     24 H2          3.3468   -0.4828   -0.0333 H         1 <0>         0.1434
     25 H3         -2.0482   -2.5649   -0.0948 H         1 <0>         0.1220
     26 H4         -0.9776   -2.1369   -1.4548 H         1 <0>         0.0772
     27 H5         -0.0783   -2.6483    1.4251 H         1 <0>         0.0789
     28 H6          0.1308   -3.7738    0.0583 H         1 <0>         0.1233
     29 H7          4.5251    3.9039    0.0373 H         1 <0>         0.1075
     30 H8          3.3181    2.9345   -2.4912 H         1 <0>         0.1288
     31 H9          2.5645    4.1167    1.5155 H         1 <0>         0.1068
     32 H10         0.8664    3.9464   -1.0115 H         1 <0>         0.0940
     33 H11         0.3169    3.9291    0.6778 H         1 <0>         0.0805
     34 H12         1.9475    7.5201    0.7037 H         1 <0>         0.4066
     35 H13         1.6373    6.2866    1.8014 H         1 <0>         0.4114
     36 H14         4.3107    4.9166   -3.9311 H         1 <0>         0.4118
     37 H15         3.9455    6.5068   -3.5306 H         1 <0>         0.3968
@<TRIPOS>BOND
     1    1    6 ar
     2    1    2 ar
     3    1   23 1
     4    2   18 1
     5    2    3 ar
     6    3    4 ar
     7    3   11 1
     8    4    5 ar
     9    4   24 1
    10    5   10 1
    11    5    6 ar
    12    6    7 1
    13    7    8 1
    14    8    9 1
    15    8   25 1
    16    8   26 1
    17    9   10 1
    18    9   27 1
    19    9   28 1
    20   11   12 1
    21   12   17 1
    22   12   13 1
    23   12   29 1
    24   13   14 1
    25   13   30 1
    26   14   15 1
    27   14   22 2
    28   15   16 2
    29   15   20 1
    30   16   17 1
    31   16   19 1
    32   17   18 1
    33   17   31 1
    34   18   32 1
    35   18   33 1
    36   19   34 1
    37   19   35 1
    38   20   21 3
    39   22   36 1
    40   22   37 1
@<TRIPOS>MOLECULE
CHEMBL402957
   43    46     0     0     0
SMALL
USER_CHARGES

@<TRIPOS>ATOM
      1 C1          0.9533   -0.4396    0.7110 C.ar      1 <0>        -0.1502
      2 C2          2.1967    0.1711    0.7274 C.ar      1 <0>        -0.0773
      3 C3          2.3684    1.3415   -0.0075 C.ar      1 <0>         0.0882
      4 C4          1.2936    1.8503   -0.7254 C.ar      1 <0>         0.0826
      5 N1          0.1271    1.2372   -0.7136 N.ar      1 <0>        -0.4632
      6 C5         -0.0680    0.1276   -0.0280 C.ar      1 <0>         0.0876
      7 N2          3.6048    1.9953   -0.0221 N.am      1 <0>        -0.6594
      8 C6          4.7452    1.2823    0.0649 C.2       1 <0>         0.5607
      9 O1          4.7044    0.0672    0.0594 O.2       1 <0>        -0.5143
     10 C7          6.0448    1.9772    0.1670 C.ar      1 <0>        -0.0898
     11 C8          6.0873    3.3790    0.1790 C.ar      1 <0>        -0.1180
     12 C9          7.2781    4.0311    0.2725 C.ar      1 <0>        -0.0509
     13 C10         8.4738    3.3040    0.3572 C.ar      1 <0>        -0.1044
     14 C11         9.8351    3.6901    0.4600 C.2       1 <0>        -0.0713
     15 C12        10.5737    2.5667    0.5090 C.2       1 <0>        -0.0152
     16 N3          9.7352    1.4581    0.4409 N.pl3     1 <0>        -0.4827
     17 C13         8.4428    1.8917    0.3469 C.ar      1 <0>         0.1230
     18 C14         7.2191    1.2380    0.2566 C.ar      1 <0>        -0.0689
     19 C15        10.2667    0.0925    0.4724 C.3       1 <0>         0.1012
     20 C16        11.6620    0.0832   -0.1504 C.3       1 <0>         0.1165
     21 H1         12.1349   -0.8761    0.0599 H         1 <0>         0.1415
     22 N4         12.5135    1.1497    0.3611 N.am      1 <0>        -0.7525
     23 C17        12.0368    2.3911    0.6168 C.2       1 <0>         0.5937
     24 O2         12.7727    3.3109    0.9197 O.2       1 <0>        -0.4726
     25 C18        11.5276    0.2453   -1.6658 C.3       1 <0>        -0.0326
     26 N5         12.8634    0.3584   -2.2666 N.4       1 <0>        -0.6336
     27 H2          0.7850   -1.3510    1.2656 H         1 <0>         0.1420
     28 H3          3.0125   -0.2498    1.2963 H         1 <0>         0.1448
     29 H4          1.4150    2.7575   -1.2987 H         1 <0>         0.1587
     30 H5         -1.0392   -0.3446   -0.0442 H         1 <0>         0.1620
     31 H6          3.6415    2.9619   -0.0949 H         1 <0>         0.4152
     32 H7          5.1694    3.9443    0.1132 H         1 <0>         0.1352
     33 H8          7.3021    5.1108    0.2811 H         1 <0>         0.1416
     34 H9         10.2104    4.7023    0.4927 H         1 <0>         0.1655
     35 H10         7.1810    0.1587    0.2520 H         1 <0>         0.1402
     36 H11        10.3263   -0.2515    1.5050 H         1 <0>         0.1105
     37 H12         9.6101   -0.5671   -0.0950 H         1 <0>         0.1222
     38 H13        13.4517    0.9643    0.5235 H         1 <0>         0.4149
     39 H14        11.0153   -0.6230   -2.0801 H         1 <0>         0.1553
     40 H15        10.9531    1.1452   -1.8855 H         1 <0>         0.1380
     41 H16        13.3377    1.1622   -1.8831 H         1 <0>         0.4347
     42 H17        13.3953   -0.4746   -2.0632 H         1 <0>         0.4367
     43 H18        12.7748    0.4653   -3.2660 H         1 <0>         0.4441
@<TRIPOS>BOND
     1    1    6 ar
     2    1    2 ar
     3    1   27 1
     4    2    3 ar
     5    2   28 1
     6    3    4 ar
     7    3    7 1
     8    4    5 ar
     9    4   29 1
    10    5    6 ar
    11    6   30 1
    12    7    8 am
    13    7   31 1
    14    8    9 2
    15    8   10 1
    16   10   18 ar
    17   10   11 ar
    18   11   12 ar
    19   11   32 1
    20   12   13 ar
    21   12   33 1
    22   13   17 ar
    23   13   14 1
    24   14   15 2
    25   14   34 1
    26   15   23 1
    27   15   16 1
    28   16   17 1
    29   16   19 1
    30   17   18 ar
    31   18   35 1
    32   19   20 1
    33   19   36 1
    34   19   37 1
    35   20   21 1
    36   20   22 1
    37   20   25 1
    38   22   23 am
    39   22   38 1
    40   23   24 2
    41   25   26 1
    42   25   39 1
    43   25   40 1
    44   26   41 1
    45   26   42 1
    46   26   43 1
@<TRIPOS>MOLECULE
CHEMBL392876
   36    39     0     0     0
SMALL
USER_CHARGES

@<TRIPOS>ATOM
      1 C1         -0.0173    1.4248    0.0099 C.3       1 <0>         0.0265
      2 O1          0.0021   -0.0041    0.0020 O.3       1 <0>        -0.3200
      3 C2          0.6062   -0.6075   -1.0564 C.ar      1 <0>         0.1059
      4 C3          1.1676    0.1811   -2.0534 C.ar      1 <0>        -0.1791
      5 C4          1.7977   -0.3655   -3.1568 C.ar      1 <0>        -0.0813
      6 C5          1.8522   -1.7548   -3.2359 C.ar      1 <0>         0.0701
      7 C6          1.2791   -2.5647   -2.2188 C.ar      1 <0>        -0.0476
      8 C7          0.6497   -1.9924   -1.1079 C.ar      1 <0>        -0.1096
      9 C8          1.5183   -3.9240   -2.6240 C.2       1 <0>        -0.1908
     10 C9          2.1902   -3.8951   -3.7995 C.2       1 <0>         0.0917
     11 N1          2.3910   -2.5951   -4.1729 N.pl3     1 <0>        -0.5568
     12 H1          2.8469   -2.3108   -4.9805 H         1 <0>         0.4256
     13 C10         2.6237   -5.1454   -4.5255 C.3       1 <0>         0.0192
     14 N2          2.0627   -6.3305   -3.8609 N.4       1 <0>        -0.3597
     15 C11         0.6023   -6.3969   -4.0511 C.3       1 <0>        -0.0124
     16 C12        -0.0535   -5.7735   -2.8037 C.3       1 <0>        -0.1326
     17 C13         1.1445   -5.2398   -1.9651 C.3       1 <0>        -0.0203
     18 C14         2.2799   -6.2186   -2.3966 C.3       1 <0>        -0.0085
     19 C15         4.1281   -5.2325   -4.5177 C.2       1 <0>         0.4947
     20 O2          4.7008   -5.8069   -3.6074 O.co2     1 <0>        -0.6500
     21 O3          4.7726   -4.7286   -5.4217 O.co2     1 <0>        -0.6323
     22 H2          1.0053    1.8021    0.0021 H         1 <0>         0.0554
     23 H3         -0.5445    1.7859   -0.8732 H         1 <0>         0.0547
     24 H4         -0.5275    1.7763    0.9067 H         1 <0>         0.1001
     25 H5          1.1099    1.2558   -1.9639 H         1 <0>         0.1323
     26 H6          2.2291    0.2591   -3.9251 H         1 <0>         0.1357
     27 H7          0.2151   -2.6009   -0.3287 H         1 <0>         0.1391
     28 H8          2.2700   -5.1068   -5.5558 H         1 <0>         0.1369
     29 H9          0.3185   -5.8329   -4.9396 H         1 <0>         0.1205
     30 H10         0.2892   -7.4358   -4.1541 H         1 <0>         0.1281
     31 H11        -0.7137   -4.9546   -3.0892 H         1 <0>         0.1012
     32 H12        -0.6034   -6.5301   -2.2439 H         1 <0>         0.0986
     33 H13         0.9620   -5.1770   -0.8923 H         1 <0>         0.1405
     34 H14         2.1612   -7.1877   -1.9119 H         1 <0>         0.1283
     35 H15         3.2604   -5.7938   -2.1814 H         1 <0>         0.1635
     36 H16         2.5059   -7.1659   -4.2125 H         1 <0>         0.4323
@<TRIPOS>BOND
     1    1    2 1
     2    1   22 1
     3    1   23 1
     4    1   24 1
     5    2    3 1
     6    3    8 ar
     7    3    4 ar
     8    4    5 ar
     9    4   25 1
    10    5    6 ar
    11    5   26 1
    12    6   11 1
    13    6    7 ar
    14    7    8 ar
    15    7    9 1
    16    8   27 1
    17    9   17 1
    18    9   10 2
    19   10   11 1
    20   10   13 1
    21   11   12 1
    22   13   14 1
    23   13   19 1
    24   13   28 1
    25   14   18 1
    26   14   15 1
    27   14   36 1
    28   15   16 1
    29   15   29 1
    30   15   30 1
    31   16   17 1
    32   16   31 1
    33   16   32 1
    34   17   18 1
    35   17   33 1
    36   18   34 1
    37   18   35 1
    38   19   20 2
    39   19   21 1
@<TRIPOS>MOLECULE
CHEMBL392876__1
   36    39     0     0     0
SMALL
USER_CHARGES

@<TRIPOS>ATOM
      1 C1          0.3853    0.1169    1.6322 C.3       1 <0>         0.0267
      2 O1          0.3220   -1.2578    1.2469 O.3       1 <0>        -0.3204
      3 C2          0.8859   -1.5916    0.0554 C.ar      1 <0>         0.1053
      4 C3          1.4880   -0.5991   -0.7088 C.ar      1 <0>        -0.1802
      5 C4          2.0795   -0.8675   -1.9301 C.ar      1 <0>        -0.0797
      6 C5          2.0508   -2.1866   -2.3753 C.ar      1 <0>         0.0683
      7 C6          1.4377   -3.2046   -1.5964 C.ar      1 <0>        -0.0480
      8 C7          0.8492   -2.9137   -0.3608 C.ar      1 <0>        -0.1117
      9 C8          1.5954   -4.4189   -2.3514 C.2       1 <0>        -0.2031
     10 C9          2.2542   -4.1148   -3.4949 C.2       1 <0>         0.0972
     11 N1          2.5324   -2.7762   -3.5132 N.pl3     1 <0>        -0.5436
     12 H1          3.0006   -2.3136   -4.2258 H         1 <0>         0.4310
     13 C10         2.5891   -5.1454   -4.5455 C.3       1 <0>         0.0143
     14 N2          2.2533   -6.4893   -4.0540 N.4       1 <0>        -0.3551
     15 C11         3.1685   -6.8961   -2.9723 C.3       1 <0>        -0.0102
     16 C12         2.4735   -6.5733   -1.6352 C.3       1 <0>        -0.1359
     17 C13         1.1630   -5.8424   -2.0492 C.3       1 <0>        -0.0169
     18 C14         0.8957   -6.4656   -3.4540 C.3       1 <0>        -0.0104
     19 C15         4.0618   -5.0805   -4.8586 C.2       1 <0>         0.4985
     20 O2          4.7336   -6.0978   -4.8438 O.co2     1 <0>        -0.6548
     21 O3          4.5814   -4.0107   -5.1269 O.co2     1 <0>        -0.6327
     22 H2          1.4279    0.4263    1.7046 H         1 <0>         0.0551
     23 H3         -0.1238    0.7271    0.8861 H         1 <0>         0.0548
     24 H4         -0.1001    0.2458    2.5996 H         1 <0>         0.0998
     25 H5          1.4939    0.4149   -0.3371 H         1 <0>         0.1318
     26 H6          2.5438   -0.0866   -2.5140 H         1 <0>         0.1359
     27 H7          0.3847   -3.6823    0.2390 H         1 <0>         0.1379
     28 H8          2.0185   -4.9380   -5.4508 H         1 <0>         0.1404
     29 H9          3.3669   -7.9659   -3.0377 H         1 <0>         0.1241
     30 H10         4.1024   -6.3391   -3.0482 H         1 <0>         0.1537
     31 H11         2.2434   -7.4910   -1.0940 H         1 <0>         0.0951
     32 H12         3.0995   -5.9189   -1.0286 H         1 <0>         0.0998
     33 H13         0.3443   -5.9283   -1.3347 H         1 <0>         0.1395
     34 H14         0.2252   -5.8342   -4.0370 H         1 <0>         0.1290
     35 H15         0.4956   -7.4752   -3.3604 H         1 <0>         0.1338
     36 H16         2.2831   -7.1525   -4.8139 H         1 <0>         0.4308
@<TRIPOS>BOND
     1    1    2 1
     2    1   22 1
     3    1   23 1
     4    1   24 1
     5    2    3 1
     6    3    8 ar
     7    3    4 ar
     8    4    5 ar
     9    4   25 1
    10    5    6 ar
    11    5   26 1
    12    6   11 1
    13    6    7 ar
    14    7    8 ar
    15    7    9 1
    16    8   27 1
    17    9   17 1
    18    9   10 2
    19   10   11 1
    20   10   13 1
    21   11   12 1
    22   13   14 1
    23   13   19 1
    24   13   28 1
    25   14   18 1
    26   14   15 1
    27   14   36 1
    28   15   16 1
    29   15   29 1
    30   15   30 1
    31   16   17 1
    32   16   31 1
    33   16   32 1
    34   17   18 1
    35   17   33 1
    36   18   34 1
    37   18   35 1
    38   19   20 2
    39   19   21 1
@<TRIPOS>MOLECULE
CHEMBL392876__2
   36    39     0     0     0
SMALL
USER_CHARGES

@<TRIPOS>ATOM
      1 C1         -2.4221   -0.9662    0.7457 C.3       1 <0>         0.0266
      2 O1         -1.8156   -2.2439    0.5420 O.3       1 <0>        -0.3204
      3 C2         -1.0325   -2.3868   -0.5606 C.ar      1 <0>         0.1053
      4 C3         -0.8612   -1.3024   -1.4126 C.ar      1 <0>        -0.1802
      5 C4         -0.0786   -1.3770   -2.5507 C.ar      1 <0>        -0.0797
      6 C5          0.5426   -2.5944   -2.8178 C.ar      1 <0>         0.0684
      7 C6          0.3698   -3.7056   -1.9495 C.ar      1 <0>        -0.0480
      8 C7         -0.4227   -3.6087   -0.8004 C.ar      1 <0>        -0.1117
      9 C8          1.1420   -4.7732   -2.5267 C.2       1 <0>        -0.2030
     10 C9          1.7243   -4.3020   -3.6548 C.2       1 <0>         0.0971
     11 N1          1.3657   -2.9949   -3.8359 N.pl3     1 <0>        -0.5437
     12 H1          1.6516   -2.4354   -4.5749 H         1 <0>         0.4310
     13 C10         2.6237   -5.1454   -4.5255 C.3       1 <0>         0.0143
     14 N2          2.6112   -6.5386   -4.0570 N.4       1 <0>        -0.3552
     15 C11         1.3054   -7.1697   -4.3214 C.3       1 <0>        -0.0101
     16 C12         0.4698   -7.0573   -3.0315 C.3       1 <0>        -0.1359
     17 C13         1.3538   -6.2067   -2.0732 C.3       1 <0>        -0.0169
     18 C14         2.7851   -6.5604   -2.5828 C.3       1 <0>        -0.0103
     19 C15         2.1347   -5.0920   -5.9500 C.2       1 <0>         0.4985
     20 O2          1.9147   -4.0158   -6.4790 O.co2     1 <0>        -0.6327
     21 O3          1.9591   -6.1250   -6.5733 O.co2     1 <0>        -0.6548
     22 H2         -1.6462   -0.2060    0.8370 H         1 <0>         0.0548
     23 H3         -3.0646   -0.7295   -0.1024 H         1 <0>         0.0551
     24 H4         -3.0182   -0.9883    1.6580 H         1 <0>         0.0998
     25 H5         -1.3555   -0.3711   -1.1786 H         1 <0>         0.1318
     26 H6          0.0453   -0.5267   -3.2050 H         1 <0>         0.1359
     27 H7         -0.5559   -4.4475   -0.1332 H         1 <0>         0.1379
     28 H8          3.6410   -4.7569   -4.4786 H         1 <0>         0.1404
     29 H9          0.8010   -6.6498   -5.1359 H         1 <0>         0.1536
     30 H10         1.4469   -8.2189   -4.5808 H         1 <0>         0.1241
     31 H11        -0.4735   -6.5492   -3.2315 H         1 <0>         0.0998
     32 H12         0.2893   -8.0450   -2.6072 H         1 <0>         0.0951
     33 H13         1.1779   -6.3798   -1.0116 H         1 <0>         0.1396
     34 H14         3.0838   -7.5518   -2.2423 H         1 <0>         0.1338
     35 H15         3.5064   -5.8070   -2.2664 H         1 <0>         0.1290
     36 H16         3.3541   -7.0586   -4.4996 H         1 <0>         0.4308
@<TRIPOS>BOND
     1    1    2 1
     2    1   22 1
     3    1   23 1
     4    1   24 1
     5    2    3 1
     6    3    8 ar
     7    3    4 ar
     8    4    5 ar
     9    4   25 1
    10    5    6 ar
    11    5   26 1
    12    6   11 1
    13    6    7 ar
    14    7    8 ar
    15    7    9 1
    16    8   27 1
    17    9   17 1
    18    9   10 2
    19   10   11 1
    20   10   13 1
    21   11   12 1
    22   13   14 1
    23   13   19 1
    24   13   28 1
    25   14   18 1
    26   14   15 1
    27   14   36 1
    28   15   16 1
    29   15   29 1
    30   15   30 1
    31   16   17 1
    32   16   31 1
    33   16   32 1
    34   17   18 1
    35   17   33 1
    36   18   34 1
    37   18   35 1
    38   19   20 2
    39   19   21 1
@<TRIPOS>MOLECULE
CHEMBL392876__3
   36    39     0     0     0
SMALL
USER_CHARGES

@<TRIPOS>ATOM
      1 C1         -0.0173    1.4248    0.0099 C.3       1 <0>         0.0266
      2 O1          0.0021   -0.0041    0.0020 O.3       1 <0>        -0.3201
      3 C2          0.6062   -0.6075   -1.0564 C.ar      1 <0>         0.1059
      4 C3          1.1676    0.1811   -2.0535 C.ar      1 <0>        -0.1796
      5 C4          1.7963   -0.3656   -3.1578 C.ar      1 <0>        -0.0807
      6 C5          1.8483   -1.7549   -3.2381 C.ar      1 <0>         0.0696
      7 C6          1.2769   -2.5647   -2.2201 C.ar      1 <0>        -0.0474
      8 C7          0.6498   -1.9924   -1.1079 C.ar      1 <0>        -0.1105
      9 C8          1.5152   -3.9240   -2.6260 C.2       1 <0>        -0.1963
     10 C9          2.1783   -3.8951   -3.8065 C.2       1 <0>         0.0947
     11 N1          2.3832   -2.5951   -4.1774 N.pl3     1 <0>        -0.5519
     12 H1          2.8390   -2.3108   -4.9851 H         1 <0>         0.4270
     13 C10         2.5891   -5.1454   -4.5455 C.3       1 <0>         0.0172
     14 N2          2.3179   -6.3289   -3.7172 N.4       1 <0>        -0.3588
     15 C11         3.2330   -6.3821   -2.5626 C.3       1 <0>        -0.0116
     16 C12         2.4958   -5.7584   -1.3615 C.3       1 <0>        -0.1322
     17 C13         1.1555   -5.2398   -1.9596 C.3       1 <0>        -0.0207
     18 C14         0.9497   -6.2262   -3.1504 C.3       1 <0>         0.0022
     19 C15         1.8099   -5.2454   -5.8315 C.2       1 <0>         0.4976
     20 O2          2.0341   -4.4665   -6.7423 O.co2     1 <0>        -0.6320
     21 O3          0.9552   -6.1052   -5.9612 O.co2     1 <0>        -0.6572
     22 H2          1.0053    1.8021    0.0021 H         1 <0>         0.0547
     23 H3         -0.5445    1.7859   -0.8732 H         1 <0>         0.0554
     24 H4         -0.5275    1.7763    0.9067 H         1 <0>         0.1000
     25 H5          1.1110    1.2558   -1.9635 H         1 <0>         0.1321
     26 H6          2.2284    0.2589   -3.9257 H         1 <0>         0.1358
     27 H7          0.2165   -2.6009   -0.3280 H         1 <0>         0.1388
     28 H8          3.6543   -5.0984   -4.7720 H         1 <0>         0.1376
     29 H9          3.4908   -7.4179   -2.3417 H         1 <0>         0.1284
     30 H10         4.1363   -5.8119   -2.7794 H         1 <0>         0.1204
     31 H11         2.3059   -6.5124   -0.5977 H         1 <0>         0.0988
     32 H12         3.0733   -4.9320   -0.9473 H         1 <0>         0.1015
     33 H13         0.3292   -5.1812   -1.2512 H         1 <0>         0.1408
     34 H14         0.2570   -5.8109   -3.8824 H         1 <0>         0.1484
     35 H15         0.6036   -7.1966   -2.7945 H         1 <0>         0.1306
     36 H16         2.3985   -7.1663   -4.2743 H         1 <0>         0.4349
@<TRIPOS>BOND
     1    1    2 1
     2    1   22 1
     3    1   23 1
     4    1   24 1
     5    2    3 1
     6    3    8 ar
     7    3    4 ar
     8    4    5 ar
     9    4   25 1
    10    5    6 ar
    11    5   26 1
    12    6   11 1
    13    6    7 ar
    14    7    8 ar
    15    7    9 1
    16    8   27 1
    17    9   17 1
    18    9   10 2
    19   10   11 1
    20   10   13 1
    21   11   12 1
    22   13   14 1
    23   13   19 1
    24   13   28 1
    25   14   18 1
    26   14   15 1
    27   14   36 1
    28   15   16 1
    29   15   29 1
    30   15   30 1
    31   16   17 1
    32   16   31 1
    33   16   32 1
    34   17   18 1
    35   17   33 1
    36   18   34 1
    37   18   35 1
    38   19   20 2
    39   19   21 1
@<TRIPOS>MOLECULE
CHEMBL467532
   39    41     0     0     0
SMALL
NO_CHARGES

@<TRIPOS>ATOM
      1 C1         -0.0187    1.5258    0.0104 C.3       1 <0>        -0.1320
      2 C2          0.0021   -0.0041    0.0020 C.3       1 <0>         0.0942
      3 C3          0.7309   -0.5033    1.2229 C.ar      1 <0>        -0.0676
      4 C4          2.1136   -0.5135    1.2460 C.ar      1 <0>        -0.1015
      5 C5          2.7852   -0.9709    2.3645 C.ar      1 <0>        -0.1049
      6 C6          2.0760   -1.4194    3.4622 C.ar      1 <0>        -0.1423
      7 C7          0.6891   -1.4102    3.4415 C.ar      1 <0>         0.1052
      8 C8          0.0174   -0.9449    2.3200 C.ar      1 <0>        -0.1379
      9 O1         -0.0106   -1.8508    4.5199 O.3       1 <0>        -0.4983
     10 N1          0.6878   -0.4765   -1.2033 N.2       1 <0>        -0.4050
     11 C9          0.0626   -1.2224   -2.0510 C.2       1 <0>         0.0735
     12 C10         0.3932   -1.9004   -3.3631 C.3       1 <0>         0.1500
     13 C11        -0.6977   -2.8853   -3.0023 C.2       1 <0>         0.2721
     14 O2         -0.9615   -4.0342   -3.2659 O.2       1 <0>        -0.3856
     15 C12        -1.3006   -1.8033   -2.1696 C.2       1 <0>         0.2591
     16 O3         -2.4102   -1.5242   -1.7675 O.2       1 <0>        -0.3964
     17 N2          0.0889   -1.0865   -4.5426 N.pl3     1 <0>        -0.6674
     18 C13         0.7742   -1.3044   -5.7340 C.ar      1 <0>         0.0943
     19 C14         1.7501   -2.2965   -5.8270 C.ar      1 <0>        -0.1541
     20 C15         2.4060   -2.4808   -7.0259 C.ar      1 <0>         0.0476
     21 N3          2.1204   -1.7331   -8.0755 N.ar      1 <0>        -0.5476
     22 C16         1.2041   -0.7842   -8.0275 C.ar      1 <0>         0.0504
     23 C17         0.4991   -0.5402   -6.8679 C.ar      1 <0>        -0.1529
     24 H1          1.0039    1.9031    0.0027 H         1 <0>         0.0708
     25 H2         -0.5459    1.8868   -0.8726 H         1 <0>         0.0619
     26 H3         -0.5289    1.8773    0.9072 H         1 <0>         0.0720
     27 H4         -1.0205   -0.3814    0.0098 H         1 <0>         0.0724
     28 H5          2.6697   -0.1640    0.3887 H         1 <0>         0.1340
     29 H6          3.8650   -0.9779    2.3801 H         1 <0>         0.1296
     30 H7          2.6012   -1.7773    4.3355 H         1 <0>         0.1295
     31 H8         -1.0624   -0.9323    2.3033 H         1 <0>         0.1281
     32 H9         -0.2127   -1.1606    5.1664 H         1 <0>         0.3912
     33 H10         1.3904   -2.3394   -3.3926 H         1 <0>         0.1358
     34 H11        -0.5903   -0.3957   -4.4931 H         1 <0>         0.4041
     35 H12         1.9890   -2.9115   -4.9719 H         1 <0>         0.1400
     36 H13         3.1634   -3.2465   -7.1070 H         1 <0>         0.1614
     37 H14         1.0008   -0.1944   -8.9092 H         1 <0>         0.1611
     38 H15        -0.2528    0.2345   -6.8369 H         1 <0>         0.1380
     39 H16         2.5978   -1.8852   -8.9060 H         1 <0>         0.4172
@<TRIPOS>BOND
     1    1    2 1
     2    1   24 1
     3    1   25 1
     4    1   26 1
     5    2    3 1
     6    2   27 1
     7    2   10 1
     8    3    8 ar
     9    3    4 ar
    10    4    5 ar
    11    4   28 1
    12    5    6 ar
    13    5   29 1
    14    6    7 ar
    15    6   30 1
    16    7    8 ar
    17    7    9 1
    18    8   31 1
    19    9   32 1
    20   10   11 2
    21   11   15 1
    22   11   12 1
    23   12   13 1
    24   12   17 1
    25   12   33 1
    26   13   14 2
    27   13   15 1
    28   15   16 2
    29   17   18 1
    30   17   34 1
    31   18   23 ar
    32   18   19 ar
    33   19   20 ar
    34   19   35 1
    35   20   21 ar
    36   20   36 1
    37   21   22 ar
    38   21   39 1
    39   22   23 ar
    40   22   37 1
    41   23   38 1
@<TRIPOS>MOLECULE
CHEMBL467532__1
   38    40     0     0     0
SMALL
NO_CHARGES

@<TRIPOS>ATOM
      1 C1         -0.0187    1.5258    0.0104 C.3       1 <0>        -0.1345
      2 C2          0.0021   -0.0041    0.0020 C.3       1 <0>         0.0893
      3 C3          0.7074   -0.4901   -1.2379 C.ar      1 <0>        -0.0743
      4 C4          0.0368   -0.5214   -2.4468 C.ar      1 <0>        -0.1019
      5 C5          0.6810   -0.9667   -3.5860 C.ar      1 <0>        -0.1023
      6 C6          1.9971   -1.3821   -3.5191 C.ar      1 <0>        -0.1380
      7 C7          2.6720   -1.3516   -2.3077 C.ar      1 <0>         0.1076
      8 C8          2.0250   -0.8985   -1.1669 C.ar      1 <0>        -0.1361
      9 O1          3.9665   -1.7597   -2.2393 O.3       1 <0>        -0.4976
     10 N1         -1.3723   -0.5112    0.0124 N.2       1 <0>        -0.3612
     11 C9         -1.7751   -1.2640    0.9803 C.2       1 <0>         0.0749
     12 C10        -3.0593   -1.9731    1.3523 C.3       1 <0>         0.1482
     13 C11        -2.1771   -2.9335    2.1201 C.2       1 <0>         0.3179
     14 O2         -2.2447   -4.0832    2.4844 O.2       1 <0>        -0.3387
     15 C12        -1.1820   -1.8259    2.2222 C.2       1 <0>         0.3017
     16 O3         -0.2864   -1.5216    2.9812 O.2       1 <0>        -0.3524
     17 N2         -3.9489   -1.1783    2.2027 N.pl3     1 <0>        -0.7028
     18 C13        -5.3175   -1.4306    2.2056 C.ar      1 <0>         0.2452
     19 C14        -5.8608   -2.4395    1.4104 C.ar      1 <0>        -0.2433
     20 C15        -7.2220   -2.6580    1.4424 C.ar      1 <0>         0.1418
     21 N3         -8.0067   -1.9271    2.2119 N.ar      1 <0>        -0.5188
     22 C16        -7.5311   -0.9635    2.9785 C.ar      1 <0>         0.1403
     23 C17        -6.1809   -0.6851    3.0081 C.ar      1 <0>        -0.2361
     24 H1          1.0039    1.9031    0.0027 H         1 <0>         0.0786
     25 H2         -0.5459    1.8868   -0.8726 H         1 <0>         0.0751
     26 H3         -0.5289    1.8773    0.9072 H         1 <0>         0.0647
     27 H4          0.5293   -0.3651    0.8851 H         1 <0>         0.0769
     28 H5         -0.9922   -0.1977   -2.5010 H         1 <0>         0.1348
     29 H6          0.1551   -0.9902   -4.5290 H         1 <0>         0.1320
     30 H7          2.4997   -1.7305   -4.4092 H         1 <0>         0.1318
     31 H8          2.5498   -0.8694   -0.2234 H         1 <0>         0.1293
     32 H9          4.6099   -1.0537   -2.3899 H         1 <0>         0.3930
     33 H10        -3.5722   -2.4282    0.5050 H         1 <0>         0.1562
     34 H11        -5.2244   -3.0410    0.7782 H         1 <0>         0.1353
     35 H12        -7.6514   -3.4368    0.8297 H         1 <0>         0.1580
     36 H13        -8.2076   -0.3886    3.5935 H         1 <0>         0.1580
     37 H14        -5.7978    0.1017    3.6410 H         1 <0>         0.1352
     38 H15        -3.5840   -0.4762    2.7638 H         1 <0>         0.4121
@<TRIPOS>BOND
     1    1    2 1
     2    1   24 1
     3    1   25 1
     4    1   26 1
     5    2    3 1
     6    2   27 1
     7    2   10 1
     8    3    8 ar
     9    3    4 ar
    10    4    5 ar
    11    4   28 1
    12    5    6 ar
    13    5   29 1
    14    6    7 ar
    15    6   30 1
    16    7    8 ar
    17    7    9 1
    18    8   31 1
    19    9   32 1
    20   10   11 2
    21   11   15 1
    22   11   12 1
    23   12   13 1
    24   12   33 1
    25   12   17 1
    26   13   14 2
    27   13   15 1
    28   15   16 2
    29   17   18 1
    30   17   38 1
    31   18   23 ar
    32   18   19 ar
    33   19   20 ar
    34   19   34 1
    35   20   21 ar
    36   20   35 1
    37   21   22 ar
    38   22   23 ar
    39   22   36 1
    40   23   37 1
@<TRIPOS>MOLECULE
CHEMBL467532__2
   38    40     0     0     0
SMALL
NO_CHARGES

@<TRIPOS>ATOM
      1 C1         -0.0187    1.5258    0.0104 C.3       1 <0>        -0.1383
      2 C2          0.0021   -0.0041    0.0020 C.3       1 <0>         0.0964
      3 C3         -1.4117   -0.5257    0.0127 C.ar      1 <0>        -0.0650
      4 C4         -2.1225   -0.5707    1.1981 C.ar      1 <0>        -0.1005
      5 C5         -3.4197   -1.0487    1.2112 C.ar      1 <0>        -0.1025
      6 C6         -4.0090   -1.4831    0.0395 C.ar      1 <0>        -0.1404
      7 C7         -3.2981   -1.4390   -1.1508 C.ar      1 <0>         0.1037
      8 C8         -1.9984   -0.9531   -1.1624 C.ar      1 <0>        -0.1327
      9 O1         -3.8755   -1.8657   -2.3047 O.3       1 <0>        -0.4987
     10 N1          0.7106   -0.4894    1.1889 N.2       1 <0>        -0.3938
     11 C9          1.7688   -1.2164    1.0564 C.2       1 <0>         0.1018
     12 C10         2.5800   -1.7668   -0.0966 C.3       1 <0>         0.0073
     13 C11         3.7433   -1.7779    0.8714 C.2       1 <0>         0.3569
     14 O2          4.9474   -1.7240    0.7929 O.2       1 <0>        -0.3578
     15 C12         2.7368   -1.8802    1.9686 C.2       1 <0>         0.3779
     16 O3          2.7187   -2.3120    3.1018 O.2       1 <0>        -0.3542
     17 N2          2.1597   -3.1010   -0.5318 N.2       1 <0>        -0.5432
     18 C13         1.7430   -3.2911   -1.7718 C.2       1 <0>         0.2673
     19 C14         1.6944   -2.1873   -2.7419 C.2       1 <0>        -0.2806
     20 C15         1.0124   -2.3807   -3.8891 C.2       1 <0>         0.1440
     21 N3          0.3842   -3.5630   -4.1334 N.pl3     1 <0>        -0.6149
     22 C16         0.6448   -4.6871   -3.4119 C.2       1 <0>         0.1210
     23 C17         1.3141   -4.6165   -2.2419 C.2       1 <0>        -0.1907
     24 H1          1.0039    1.9031    0.0027 H         1 <0>         0.0638
     25 H2         -0.5459    1.8868   -0.8726 H         1 <0>         0.0734
     26 H3         -0.5289    1.8773    0.9072 H         1 <0>         0.0732
     27 H4          0.5123   -0.3556   -0.8948 H         1 <0>         0.0698
     28 H5         -1.6634   -0.2322    2.1152 H         1 <0>         0.1338
     29 H6         -3.9727   -1.0828    2.1382 H         1 <0>         0.1305
     30 H7         -5.0221   -1.8571    0.0504 H         1 <0>         0.1297
     31 H8         -1.4445   -0.9133   -2.0887 H         1 <0>         0.1241
     32 H9         -4.3452   -1.1729   -2.7890 H         1 <0>         0.3899
     33 H10         2.7017   -1.0664   -0.9229 H         1 <0>         0.1090
     34 H11         2.1900   -1.2489   -2.5414 H         1 <0>         0.1414
     35 H12         0.9638   -1.5886   -4.6217 H         1 <0>         0.1608
     36 H13         0.3171   -5.6473   -3.7820 H         1 <0>         0.1668
     37 H14         1.5244   -5.5054   -1.6657 H         1 <0>         0.1521
     38 H15        -0.2722   -3.6058   -4.8462 H         1 <0>         0.4185
@<TRIPOS>BOND
     1    1    2 1
     2    1   24 1
     3    1   25 1
     4    1   26 1
     5    2    3 1
     6    2   27 1
     7    2   10 1
     8    3    8 ar
     9    3    4 ar
    10    4    5 ar
    11    4   28 1
    12    5    6 ar
    13    5   29 1
    14    6    7 ar
    15    6   30 1
    16    7    8 ar
    17    7    9 1
    18    8   31 1
    19    9   32 1
    20   10   11 2
    21   11   15 1
    22   11   12 1
    23   12   13 1
    24   12   17 1
    25   12   33 1
    26   13   14 2
    27   13   15 1
    28   15   16 2
    29   17   18 2
    30   18   23 1
    31   18   19 1
    32   19   20 2
    33   19   34 1
    34   20   21 1
    35   20   35 1
    36   21   22 1
    37   21   38 1
    38   22   23 2
    39   22   36 1
    40   23   37 1
@<TRIPOS>MOLECULE
CHEMBL467532__3
   38    40     0     0     0
SMALL
NO_CHARGES

@<TRIPOS>ATOM
      1 C1         -0.0187    1.5258    0.0104 C.3       1 <0>        -0.1328
      2 C2          0.0021   -0.0041    0.0020 C.3       1 <0>         0.0910
      3 C3         -1.4117   -0.5257    0.0127 C.ar      1 <0>        -0.0695
      4 C4         -2.1225   -0.5707    1.1981 C.ar      1 <0>        -0.1017
      5 C5         -3.4197   -1.0487    1.2112 C.ar      1 <0>        -0.1040
      6 C6         -4.0090   -1.4831    0.0395 C.ar      1 <0>        -0.1408
      7 C7         -3.2981   -1.4390   -1.1508 C.ar      1 <0>         0.1064
      8 C8         -1.9984   -0.9531   -1.1624 C.ar      1 <0>        -0.1371
      9 O1         -3.8755   -1.8657   -2.3047 O.3       1 <0>        -0.4979
     10 N1          0.7106   -0.4894    1.1889 N.2       1 <0>        -0.3916
     11 C9          1.7688   -1.2164    1.0564 C.2       1 <0>         0.1043
     12 C10         2.7505   -1.8978    1.9851 C.3       1 <0>         0.0646
     13 C11         2.9985   -2.8563    0.8405 C.2       1 <0>         0.3478
     14 O2          3.3765   -3.9973    0.7210 O.2       1 <0>        -0.3592
     15 C12         2.5618   -1.7624   -0.0761 C.2       1 <0>         0.3235
     16 O3          2.7637   -1.4570   -1.2323 O.2       1 <0>        -0.3659
     17 N2          3.9114   -1.0724    2.3276 N.2       1 <0>        -0.5497
     18 C13         4.1520   -0.7615    3.5897 C.2       1 <0>         0.2719
     19 C14         3.2790   -1.2320    4.6751 C.2       1 <0>        -0.2710
     20 C15         3.4158   -0.6640    5.8905 C.2       1 <0>         0.1400
     21 N3          4.3326    0.3200    6.0987 N.pl3     1 <0>        -0.6174
     22 C16         5.3393    0.5734    5.2186 C.2       1 <0>         0.1210
     23 C17         5.3077    0.0647    3.9688 C.2       1 <0>        -0.1936
     24 H1          1.0039    1.9031    0.0027 H         1 <0>         0.0642
     25 H2         -0.5459    1.8868   -0.8726 H         1 <0>         0.0748
     26 H3         -0.5289    1.8773    0.9072 H         1 <0>         0.0716
     27 H4          0.5123   -0.3556   -0.8948 H         1 <0>         0.0738
     28 H5         -1.6634   -0.2322    2.1152 H         1 <0>         0.1336
     29 H6         -3.9727   -1.0828    2.1382 H         1 <0>         0.1302
     30 H7         -5.0221   -1.8571    0.0504 H         1 <0>         0.1304
     31 H8         -1.4445   -0.9133   -2.0887 H         1 <0>         0.1291
     32 H9         -4.3452   -1.1729   -2.7890 H         1 <0>         0.3919
     33 H10         2.2846   -2.3617    2.8545 H         1 <0>         0.1175
     34 H11         2.5493   -2.0095    4.5039 H         1 <0>         0.1455
     35 H12         2.7908   -0.9933    6.7074 H         1 <0>         0.1620
     36 H13         6.1756    1.1842    5.5251 H         1 <0>         0.1668
     37 H14         6.1041    0.2619    3.2665 H         1 <0>         0.1521
     38 H15         4.2661    0.8596    6.9020 H         1 <0>         0.4181
@<TRIPOS>BOND
     1    1    2 1
     2    1   24 1
     3    1   25 1
     4    1   26 1
     5    2    3 1
     6    2   27 1
     7    2   10 1
     8    3    8 ar
     9    3    4 ar
    10    4    5 ar
    11    4   28 1
    12    5    6 ar
    13    5   29 1
    14    6    7 ar
    15    6   30 1
    16    7    8 ar
    17    7    9 1
    18    8   31 1
    19    9   32 1
    20   10   11 2
    21   11   15 1
    22   11   12 1
    23   12   13 1
    24   12   17 1
    25   12   33 1
    26   13   14 2
    27   13   15 1
    28   15   16 2
    29   17   18 2
    30   18   23 1
    31   18   19 1
    32   19   20 2
    33   19   34 1
    34   20   21 1
    35   20   35 1
    36   21   22 1
    37   21   38 1
    38   22   23 2
    39   22   36 1
    40   23   37 1
@<TRIPOS>MOLECULE
CHEMBL467532__4
   39    41     0     0     0
SMALL
NO_CHARGES

@<TRIPOS>ATOM
      1 C1         -0.0187    1.5258    0.0104 C.3       1 <0>        -0.1381
      2 C2          0.0021   -0.0041    0.0020 C.3       1 <0>         0.0981
      3 C3          0.7309   -0.5033    1.2229 C.ar      1 <0>        -0.0652
      4 C4          2.1136   -0.5135    1.2460 C.ar      1 <0>        -0.1016
      5 C5          2.7852   -0.9709    2.3645 C.ar      1 <0>        -0.1039
      6 C6          2.0760   -1.4194    3.4622 C.ar      1 <0>        -0.1421
      7 C7          0.6891   -1.4102    3.4415 C.ar      1 <0>         0.1038
      8 C8          0.0174   -0.9449    2.3200 C.ar      1 <0>        -0.1347
      9 O1         -0.0106   -1.8508    4.5199 O.3       1 <0>        -0.4989
     10 N1          0.6878   -0.4765   -1.2033 N.2       1 <0>        -0.4016
     11 C9          0.0626   -1.2224   -2.0510 C.2       1 <0>         0.0742
     12 C10        -1.3273   -1.8083   -2.1751 C.3       1 <0>         0.0933
     13 C11        -1.0703   -1.8183   -3.6664 C.2       1 <0>         0.2843
     14 O2         -1.7413   -1.7847   -4.6702 O.2       1 <0>        -0.3805
     15 C12         0.3853   -1.8829   -3.3430 C.2       1 <0>         0.3190
     16 O3          1.3863   -2.2916   -3.8924 O.2       1 <0>        -0.3808
     17 N2         -1.4606   -3.1443   -1.5889 N.pl3     1 <0>        -0.6681
     18 C13        -2.7044   -3.5927   -1.1546 C.ar      1 <0>         0.0816
     19 C14        -3.8370   -2.7875   -1.2741 C.ar      1 <0>        -0.1536
     20 C15        -5.0511   -3.2692   -0.8320 C.ar      1 <0>         0.0423
     21 N3         -5.1487   -4.4741   -0.3021 N.ar      1 <0>        -0.5498
     22 C16        -4.1007   -5.2658   -0.1713 C.ar      1 <0>         0.0460
     23 C17        -2.8520   -4.8612   -0.5939 C.ar      1 <0>        -0.1491
     24 H1          1.0039    1.9031    0.0027 H         1 <0>         0.0715
     25 H2         -0.5459    1.8868   -0.8726 H         1 <0>         0.0632
     26 H3         -0.5289    1.8773    0.9072 H         1 <0>         0.0718
     27 H4         -1.0205   -0.3814    0.0098 H         1 <0>         0.0700
     28 H5          2.6697   -0.1640    0.3887 H         1 <0>         0.1336
     29 H6          3.8650   -0.9779    2.3801 H         1 <0>         0.1295
     30 H7          2.6012   -1.7773    4.3355 H         1 <0>         0.1290
     31 H8         -1.0624   -0.9323    2.3033 H         1 <0>         0.1267
     32 H9         -0.2127   -1.1606    5.1664 H         1 <0>         0.3907
     33 H10        -2.1212   -1.1266   -1.8698 H         1 <0>         0.1285
     34 H11        -0.6819   -3.7164   -1.5035 H         1 <0>         0.4046
     35 H12        -3.7641   -1.8005   -1.7064 H         1 <0>         0.1356
     36 H13        -5.9334   -2.6525   -0.9202 H         1 <0>         0.1590
     37 H14        -4.2235   -6.2447    0.2682 H         1 <0>         0.1595
     38 H15        -1.9995   -5.5159   -0.4884 H         1 <0>         0.1362
     39 H16        -6.0157   -4.7868    0.0003 H         1 <0>         0.4161
@<TRIPOS>BOND
     1    1    2 1
     2    1   24 1
     3    1   25 1
     4    1   26 1
     5    2    3 1
     6    2   27 1
     7    2   10 1
     8    3    8 ar
     9    3    4 ar
    10    4    5 ar
    11    4   28 1
    12    5    6 ar
    13    5   29 1
    14    6    7 ar
    15    6   30 1
    16    7    8 ar
    17    7    9 1
    18    8   31 1
    19    9   32 1
    20   10   11 2
    21   11   15 1
    22   11   12 1
    23   12   13 1
    24   12   17 1
    25   12   33 1
    26   13   14 2
    27   13   15 1
    28   15   16 2
    29   17   18 1
    30   17   34 1
    31   18   23 ar
    32   18   19 ar
    33   19   20 ar
    34   19   35 1
    35   20   21 ar
    36   20   36 1
    37   21   22 ar
    38   21   39 1
    39   22   23 ar
    40   22   37 1
    41   23   38 1
@<TRIPOS>MOLECULE
CHEMBL467532__5
   38    40     0     0     0
SMALL
NO_CHARGES

@<TRIPOS>ATOM
      1 C1         -0.0187    1.5258    0.0104 C.3       1 <0>        -0.1393
      2 C2          0.0021   -0.0041    0.0020 C.3       1 <0>         0.0936
      3 C3          0.7074   -0.4901   -1.2379 C.ar      1 <0>        -0.0714
      4 C4          0.0368   -0.5214   -2.4468 C.ar      1 <0>        -0.1030
      5 C5          0.6810   -0.9667   -3.5860 C.ar      1 <0>        -0.1023
      6 C6          1.9971   -1.3821   -3.5191 C.ar      1 <0>        -0.1384
      7 C7          2.6720   -1.3516   -2.3077 C.ar      1 <0>         0.1074
      8 C8          2.0250   -0.8985   -1.1669 C.ar      1 <0>        -0.1334
      9 O1          3.9665   -1.7597   -2.2393 O.3       1 <0>        -0.4975
     10 N1         -1.3723   -0.5112    0.0124 N.2       1 <0>        -0.3637
     11 C9         -1.7751   -1.2640    0.9803 C.2       1 <0>         0.0729
     12 C10        -1.1733   -1.8306    2.2481 C.3       1 <0>         0.0895
     13 C11        -2.5927   -1.8743    2.7711 C.2       1 <0>         0.3263
     14 O2         -3.1273   -1.8503    3.8540 O.2       1 <0>        -0.3381
     15 C12        -3.0385   -1.9551    1.3491 C.2       1 <0>         0.3562
     16 O3         -4.0041   -2.3903    0.7583 O.2       1 <0>        -0.3412
     17 N2         -0.5656   -3.1523    2.0751 N.pl3     1 <0>        -0.7023
     18 C13         0.4432   -3.5725    2.9368 C.ar      1 <0>         0.2445
     19 C14         0.8856   -2.7523    3.9746 C.ar      1 <0>        -0.2460
     20 C15         1.8871   -3.2061    4.8067 C.ar      1 <0>         0.1419
     21 N3          2.4250   -4.3985    4.6305 N.ar      1 <0>        -0.5181
     22 C16         2.0340   -5.2038    3.6605 C.ar      1 <0>         0.1415
     23 C17         1.0343   -4.8271    2.7886 C.ar      1 <0>        -0.2351
     24 H1          1.0039    1.9031    0.0027 H         1 <0>         0.0780
     25 H2         -0.5459    1.8868   -0.8726 H         1 <0>         0.0748
     26 H3         -0.5289    1.8773    0.9072 H         1 <0>         0.0658
     27 H4          0.5293   -0.3651    0.8851 H         1 <0>         0.0756
     28 H5         -0.9922   -0.1977   -2.5010 H         1 <0>         0.1336
     29 H6          0.1551   -0.9902   -4.5290 H         1 <0>         0.1313
     30 H7          2.4997   -1.7305   -4.4092 H         1 <0>         0.1312
     31 H8          2.5498   -0.8694   -0.2234 H         1 <0>         0.1285
     32 H9          4.6099   -1.0537   -2.3899 H         1 <0>         0.3928
     33 H10        -0.5294   -1.1306    2.7806 H         1 <0>         0.1474
     34 H11         0.4500   -1.7754    4.1241 H         1 <0>         0.1328
     35 H12         2.2361   -2.5777    5.6127 H         1 <0>         0.1574
     36 H13         2.5002   -6.1718    3.5508 H         1 <0>         0.1583
     37 H14         0.7160   -5.4927    1.9999 H         1 <0>         0.1353
     38 H15        -0.8664   -3.7346    1.3600 H         1 <0>         0.4132
@<TRIPOS>BOND
     1    1    2 1
     2    1   24 1
     3    1   25 1
     4    1   26 1
     5    2    3 1
     6    2   27 1
     7    2   10 1
     8    3    8 ar
     9    3    4 ar
    10    4    5 ar
    11    4   28 1
    12    5    6 ar
    13    5   29 1
    14    6    7 ar
    15    6   30 1
    16    7    8 ar
    17    7    9 1
    18    8   31 1
    19    9   32 1
    20   10   11 2
    21   11   15 1
    22   11   12 1
    23   12   13 1
    24   12   33 1
    25   12   17 1
    26   13   14 2
    27   13   15 1
    28   15   16 2
    29   17   18 1
    30   17   38 1
    31   18   23 ar
    32   18   19 ar
    33   19   20 ar
    34   19   34 1
    35   20   21 ar
    36   20   35 1
    37   21   22 ar
    38   22   23 ar
    39   22   36 1
    40   23   37 1
@<TRIPOS>MOLECULE
CHEMBL467532__6
   39    41     0     0     0
SMALL
NO_CHARGES

@<TRIPOS>ATOM
      1 C1         -0.0187    1.5258    0.0104 C.3       1 <0>        -0.1348
      2 C2          0.0021   -0.0041    0.0020 C.3       1 <0>         0.0989
      3 C3          0.7074   -0.4901   -1.2379 C.ar      1 <0>        -0.0696
      4 C4          2.0894   -0.5105   -1.2833 C.ar      1 <0>        -0.1013
      5 C5          2.7395   -0.9558   -2.4192 C.ar      1 <0>        -0.1033
      6 C6          2.0095   -1.3812   -3.5124 C.ar      1 <0>        -0.1415
      7 C7          0.6232   -1.3616   -3.4694 C.ar      1 <0>         0.1043
      8 C8         -0.0269   -0.9200   -2.3258 C.ar      1 <0>        -0.1375
      9 O1         -0.0971   -1.7795   -4.5433 O.3       1 <0>        -0.4985
     10 N1          0.7106   -0.4894    1.1889 N.2       1 <0>        -0.3977
     11 C9          0.1016   -1.2444    2.0403 C.2       1 <0>         0.0748
     12 C10        -1.2817   -1.8427    2.1777 C.3       1 <0>         0.0943
     13 C11        -0.6137   -2.9189    3.0059 C.2       1 <0>         0.2878
     14 O2         -0.8370   -4.0725    3.2858 O.2       1 <0>        -0.3769
     15 C12         0.4489   -1.9187    3.3187 C.2       1 <0>         0.3231
     16 O3          1.2435   -1.7384    4.2170 O.2       1 <0>        -0.3770
     17 N2         -2.2151   -1.0064    2.9364 N.pl3     1 <0>        -0.6701
     18 C13        -3.5855   -1.1251    2.7249 C.ar      1 <0>         0.0716
     19 C14        -4.0902   -2.0382    1.7992 C.ar      1 <0>        -0.1514
     20 C15        -5.4546   -2.1253    1.6196 C.ar      1 <0>         0.0387
     21 N3         -6.2783   -1.3589    2.3098 N.ar      1 <0>        -0.5518
     22 C16        -5.8400   -0.4826    3.1942 C.ar      1 <0>         0.0414
     23 C17        -4.4903   -0.3380    3.4371 C.ar      1 <0>        -0.1474
     24 H1          1.0039    1.9031    0.0027 H         1 <0>         0.0709
     25 H2         -0.5459    1.8868   -0.8726 H         1 <0>         0.0727
     26 H3         -0.5289    1.8773    0.9072 H         1 <0>         0.0628
     27 H4         -1.0205   -0.3814    0.0098 H         1 <0>         0.0711
     28 H5          2.6619   -0.1778   -0.4301 H         1 <0>         0.1341
     29 H6          3.8189   -0.9708   -2.4523 H         1 <0>         0.1299
     30 H7          2.5178   -1.7283   -4.3999 H         1 <0>         0.1296
     31 H8         -1.1062   -0.9083   -2.2881 H         1 <0>         0.1280
     32 H9         -0.3072   -2.7234   -4.5328 H         1 <0>         0.3911
     33 H10        -1.6995   -2.2057    1.2387 H         1 <0>         0.1293
     34 H11        -1.8780   -0.3700    3.5863 H         1 <0>         0.4043
     35 H12        -3.4218   -2.6680    1.2310 H         1 <0>         0.1339
     36 H13        -5.8543   -2.8293    0.9047 H         1 <0>         0.1575
     37 H14        -6.5476    0.1258    3.7378 H         1 <0>         0.1581
     38 H15        -4.1385    0.3774    4.1657 H         1 <0>         0.1352
     39 H16        -7.2335   -1.4418    2.1625 H         1 <0>         0.4153
@<TRIPOS>BOND
     1    1    2 1
     2    1   24 1
     3    1   25 1
     4    1   26 1
     5    2    3 1
     6    2   27 1
     7    2   10 1
     8    3    8 ar
     9    3    4 ar
    10    4    5 ar
    11    4   28 1
    12    5    6 ar
    13    5   29 1
    14    6    7 ar
    15    6   30 1
    16    7    8 ar
    17    7    9 1
    18    8   31 1
    19    9   32 1
    20   10   11 2
    21   11   15 1
    22   11   12 1
    23   12   13 1
    24   12   17 1
    25   12   33 1
    26   13   14 2
    27   13   15 1
    28   15   16 2
    29   17   18 1
    30   17   34 1
    31   18   23 ar
    32   18   19 ar
    33   19   20 ar
    34   19   35 1
    35   20   21 ar
    36   20   36 1
    37   21   22 ar
    38   21   39 1
    39   22   23 ar
    40   22   37 1
    41   23   38 1
@<TRIPOS>MOLECULE
CHEMBL467532__7
   38    40     0     0     0
SMALL
NO_CHARGES

@<TRIPOS>ATOM
      1 C1         -0.0187    1.5258    0.0104 C.3       1 <0>        -0.1381
      2 C2          0.0021   -0.0041    0.0020 C.3       1 <0>         0.0892
      3 C3         -1.4117   -0.5257    0.0127 C.ar      1 <0>        -0.0713
      4 C4         -2.1412   -0.5686   -1.1613 C.ar      1 <0>        -0.1026
      5 C5         -3.4383   -1.0465   -1.1549 C.ar      1 <0>        -0.1026
      6 C6         -4.0094   -1.4823    0.0254 C.ar      1 <0>        -0.1383
      7 C7         -3.2798   -1.4403    1.2044 C.ar      1 <0>         0.1073
      8 C8         -1.9759   -0.9658    1.1941 C.ar      1 <0>        -0.1339
      9 O1         -3.8392   -1.8683    2.3666 O.3       1 <0>        -0.4974
     10 N1          0.6878   -0.4765   -1.2033 N.2       1 <0>        -0.3603
     11 C9          1.7482   -1.2048   -1.0989 C.2       1 <0>         0.0737
     12 C10         2.7196   -1.8650   -2.0535 C.3       1 <0>         0.1482
     13 C11         3.7237   -1.7666   -0.9254 C.2       1 <0>         0.3181
     14 O2          4.9262   -1.7114   -0.8268 O.2       1 <0>        -0.3390
     15 C12         2.5626   -1.7629    0.0124 C.2       1 <0>         0.3015
     16 O3          2.3708   -2.0753    1.1684 O.2       1 <0>        -0.3523
     17 N2          2.3594   -3.2404   -2.4065 N.pl3     1 <0>        -0.7028
     18 C13         2.8020   -3.7895   -3.6063 C.ar      1 <0>         0.2453
     19 C14         3.5941   -3.0485   -4.4832 C.ar      1 <0>        -0.2431
     20 C15         4.0125   -3.6294   -5.6617 C.ar      1 <0>         0.1417
     21 N3          3.6725   -4.8687   -5.9634 N.ar      1 <0>        -0.5187
     22 C16         2.9246   -5.6021   -5.1603 C.ar      1 <0>         0.1405
     23 C17         2.4699   -5.0970   -3.9604 C.ar      1 <0>        -0.2361
     24 H1          1.0039    1.9031    0.0027 H         1 <0>         0.0650
     25 H2         -0.5459    1.8868   -0.8726 H         1 <0>         0.0760
     26 H3         -0.5289    1.8773    0.9072 H         1 <0>         0.0788
     27 H4          0.5293   -0.3651    0.8851 H         1 <0>         0.0768
     28 H5         -1.6968   -0.2278   -2.0848 H         1 <0>         0.1341
     29 H6         -4.0060   -1.0790   -2.0731 H         1 <0>         0.1315
     30 H7         -5.0230   -1.8549    0.0301 H         1 <0>         0.1315
     31 H8         -1.4042   -0.9365    2.1099 H         1 <0>         0.1299
     32 H9         -3.7015   -2.8084    2.5466 H         1 <0>         0.3927
     33 H10         2.9697   -1.2529   -2.9200 H         1 <0>         0.1564
     34 H11         3.8756   -2.0340   -4.2426 H         1 <0>         0.1354
     35 H12         4.6258   -3.0630   -6.3469 H         1 <0>         0.1581
     36 H13         2.6690   -6.6122   -5.4446 H         1 <0>         0.1579
     37 H14         1.8622   -5.7041   -3.3059 H         1 <0>         0.1349
     38 H15         1.8125   -3.7685   -1.8041 H         1 <0>         0.4120
@<TRIPOS>BOND
     1    1    2 1
     2    1   24 1
     3    1   25 1
     4    1   26 1
     5    2    3 1
     6    2   27 1
     7    2   10 1
     8    3    8 ar
     9    3    4 ar
    10    4    5 ar
    11    4   28 1
    12    5    6 ar
    13    5   29 1
    14    6    7 ar
    15    6   30 1
    16    7    8 ar
    17    7    9 1
    18    8   31 1
    19    9   32 1
    20   10   11 2
    21   11   15 1
    22   11   12 1
    23   12   13 1
    24   12   33 1
    25   12   17 1
    26   13   14 2
    27   13   15 1
    28   15   16 2
    29   17   18 1
    30   17   38 1
    31   18   23 ar
    32   18   19 ar
    33   19   20 ar
    34   19   34 1
    35   20   21 ar
    36   20   35 1
    37   21   22 ar
    38   22   23 ar
    39   22   36 1
    40   23   37 1
@<TRIPOS>MOLECULE
CHEMBL467532__8
   38    40     0     0     0
SMALL
NO_CHARGES

@<TRIPOS>ATOM
      1 C1         -0.0187    1.5258    0.0104 C.3       1 <0>        -0.1361
      2 C2          0.0021   -0.0041    0.0020 C.3       1 <0>         0.0948
      3 C3         -1.4117   -0.5257    0.0127 C.ar      1 <0>        -0.0750
      4 C4         -2.1412   -0.5686   -1.1613 C.ar      1 <0>        -0.1027
      5 C5         -3.4383   -1.0465   -1.1549 C.ar      1 <0>        -0.1019
      6 C6         -4.0094   -1.4823    0.0254 C.ar      1 <0>        -0.1383
      7 C7         -3.2798   -1.4403    1.2044 C.ar      1 <0>         0.1073
      8 C8         -1.9759   -0.9658    1.1941 C.ar      1 <0>        -0.1356
      9 O1         -3.8392   -1.8683    2.3666 O.3       1 <0>        -0.4974
     10 N1          0.6878   -0.4765   -1.2033 N.2       1 <0>        -0.3634
     11 C9          1.7482   -1.2048   -1.0989 C.2       1 <0>         0.0731
     12 C10         2.5736   -1.7786    0.0325 C.3       1 <0>         0.0891
     13 C11         2.9838   -2.8483   -0.9563 C.2       1 <0>         0.3262
     14 O2          3.3667   -3.9924   -0.8989 O.2       1 <0>        -0.3381
     15 C12         2.6985   -1.8587   -2.0365 C.2       1 <0>         0.3561
     16 O3          3.0747   -1.6729   -3.1744 O.2       1 <0>        -0.3411
     17 N2          3.6759   -0.9129    0.4586 N.pl3     1 <0>        -0.7027
     18 C13         4.1805   -1.0144    1.7516 C.ar      1 <0>         0.2437
     19 C14         3.6542   -1.9379    2.6547 C.ar      1 <0>        -0.2455
     20 C15         4.1827   -2.0073    3.9265 C.ar      1 <0>         0.1424
     21 N3          5.1726   -1.2145    4.2921 N.ar      1 <0>        -0.5181
     22 C16         5.6976   -0.3279    3.4671 C.ar      1 <0>         0.1413
     23 C17         5.2296   -0.1993    2.1764 C.ar      1 <0>        -0.2359
     24 H1          1.0039    1.9031    0.0027 H         1 <0>         0.0646
     25 H2         -0.5459    1.8868   -0.8726 H         1 <0>         0.0744
     26 H3         -0.5289    1.8773    0.9072 H         1 <0>         0.0787
     27 H4          0.5293   -0.3651    0.8851 H         1 <0>         0.0758
     28 H5         -1.6968   -0.2278   -2.0848 H         1 <0>         0.1340
     29 H6         -4.0060   -1.0790   -2.0731 H         1 <0>         0.1315
     30 H7         -5.0230   -1.8549    0.0301 H         1 <0>         0.1315
     31 H8         -1.4042   -0.9365    2.1099 H         1 <0>         0.1298
     32 H9         -3.7015   -2.8084    2.5466 H         1 <0>         0.3927
     33 H10         1.9784   -2.1538    0.8651 H         1 <0>         0.1470
     34 H11         2.8440   -2.5893    2.3621 H         1 <0>         0.1327
     35 H12         3.7812   -2.7191    4.6325 H         1 <0>         0.1576
     36 H13         6.5069    0.3019    3.8059 H         1 <0>         0.1585
     37 H14         5.6667    0.5250    1.5050 H         1 <0>         0.1358
     38 H15         4.0541   -0.2690   -0.1604 H         1 <0>         0.4133
@<TRIPOS>BOND
     1    1    2 1
     2    1   24 1
     3    1   25 1
     4    1   26 1
     5    2    3 1
     6    2   27 1
     7    2   10 1
     8    3    8 ar
     9    3    4 ar
    10    4    5 ar
    11    4   28 1
    12    5    6 ar
    13    5   29 1
    14    6    7 ar
    15    6   30 1
    16    7    8 ar
    17    7    9 1
    18    8   31 1
    19    9   32 1
    20   10   11 2
    21   11   15 1
    22   11   12 1
    23   12   13 1
    24   12   33 1
    25   12   17 1
    26   13   14 2
    27   13   15 1
    28   15   16 2
    29   17   18 1
    30   17   38 1
    31   18   23 ar
    32   18   19 ar
    33   19   20 ar
    34   19   34 1
    35   20   21 ar
    36   20   35 1
    37   21   22 ar
    38   22   23 ar
    39   22   36 1
    40   23   37 1
@<TRIPOS>MOLECULE
CHEMBL467532__9
   38    40     0     0     0
SMALL
NO_CHARGES

@<TRIPOS>ATOM
      1 C1         -0.0187    1.5258    0.0104 C.3       1 <0>        -0.1364
      2 C2          0.0021   -0.0041    0.0020 C.3       1 <0>         0.0906
      3 C3          0.7309   -0.5033    1.2229 C.ar      1 <0>        -0.0655
      4 C4          0.0800   -0.5583    2.4418 C.ar      1 <0>        -0.1014
      5 C5          0.7459   -1.0157    3.5636 C.ar      1 <0>        -0.1047
      6 C6          2.0641   -1.4188    3.4696 C.ar      1 <0>        -0.1409
      7 C7          2.7192   -1.3646    2.2482 C.ar      1 <0>         0.1062
      8 C8          2.0468   -0.9108    1.1224 C.ar      1 <0>        -0.1339
      9 O1          4.0158   -1.7606    2.1531 O.3       1 <0>        -0.4982
     10 N1         -1.3723   -0.5112    0.0124 N.2       1 <0>        -0.3909
     11 C9         -1.7936   -1.2536   -0.9556 C.2       1 <0>         0.1032
     12 C10        -3.0889   -1.9478   -1.3173 C.3       1 <0>         0.0647
     13 C11        -2.6164   -1.8426   -2.7512 C.2       1 <0>         0.3480
     14 O2         -3.1334   -1.8041   -3.8422 O.2       1 <0>        -0.3596
     15 C12        -1.2244   -1.8020   -2.2146 C.2       1 <0>         0.3233
     16 O3         -0.1197   -2.0882   -2.6253 O.2       1 <0>        -0.3659
     17 N2         -3.1801   -3.3243   -0.8241 N.2       1 <0>        -0.5497
     18 C13        -4.1517   -3.6665    0.0044 C.2       1 <0>         0.2722
     19 C14        -5.1609   -2.6929    0.4462 C.2       1 <0>        -0.2711
     20 C15        -5.9498   -3.0257    1.4881 C.2       1 <0>         0.1401
     21 N3         -5.8070   -4.2265    2.1123 N.pl3     1 <0>        -0.6172
     22 C16        -5.1022   -5.2525    1.5620 C.2       1 <0>         0.1210
     23 C17        -4.2730   -5.0385    0.5186 C.2       1 <0>        -0.1936
     24 H1          1.0039    1.9031    0.0027 H         1 <0>         0.0754
     25 H2         -0.5459    1.8868   -0.8726 H         1 <0>         0.0631
     26 H3         -0.5289    1.8773    0.9072 H         1 <0>         0.0730
     27 H4          0.5123   -0.3556   -0.8948 H         1 <0>         0.0736
     28 H5         -0.9502   -0.2430    2.5175 H         1 <0>         0.1322
     29 H6          0.2353   -1.0577    4.5144 H         1 <0>         0.1291
     30 H7          2.5840   -1.7755    4.3464 H         1 <0>         0.1300
     31 H8          2.5533   -0.8722    0.1693 H         1 <0>         0.1295
     32 H9          4.1264   -2.6989    1.9471 H         1 <0>         0.3921
     33 H10        -3.9795   -1.3572   -1.1029 H         1 <0>         0.1176
     34 H11        -5.2671   -1.7390   -0.0489 H         1 <0>         0.1456
     35 H12        -6.7028   -2.3316    1.8310 H         1 <0>         0.1620
     36 H13        -5.2112   -6.2501    1.9611 H         1 <0>         0.1667
     37 H14        -3.7119   -5.8490    0.0775 H         1 <0>         0.1518
     38 H15        -6.2217   -4.3556    2.9796 H         1 <0>         0.4180
@<TRIPOS>BOND
     1    1    2 1
     2    1   24 1
     3    1   25 1
     4    1   26 1
     5    2    3 1
     6    2   27 1
     7    2   10 1
     8    3    8 ar
     9    3    4 ar
    10    4    5 ar
    11    4   28 1
    12    5    6 ar
    13    5   29 1
    14    6    7 ar
    15    6   30 1
    16    7    8 ar
    17    7    9 1
    18    8   31 1
    19    9   32 1
    20   10   11 2
    21   11   15 1
    22   11   12 1
    23   12   13 1
    24   12   17 1
    25   12   33 1
    26   13   14 2
    27   13   15 1
    28   15   16 2
    29   17   18 2
    30   18   23 1
    31   18   19 1
    32   19   20 2
    33   19   34 1
    34   20   21 1
    35   20   35 1
    36   21   22 1
    37   21   38 1
    38   22   23 2
    39   22   36 1
    40   23   37 1
@<TRIPOS>MOLECULE
CHEMBL467532__10
   38    40     0     0     0
SMALL
NO_CHARGES

@<TRIPOS>ATOM
      1 C1         -0.0187    1.5258    0.0104 C.3       1 <0>        -0.1338
      2 C2          0.0021   -0.0041    0.0020 C.3       1 <0>         0.0985
      3 C3          0.7309   -0.5033    1.2229 C.ar      1 <0>        -0.0705
      4 C4          0.0800   -0.5583    2.4418 C.ar      1 <0>        -0.1016
      5 C5          0.7459   -1.0157    3.5636 C.ar      1 <0>        -0.1021
      6 C6          2.0641   -1.4188    3.4696 C.ar      1 <0>        -0.1406
      7 C7          2.7192   -1.3646    2.2482 C.ar      1 <0>         0.1049
      8 C8          2.0468   -0.9108    1.1224 C.ar      1 <0>        -0.1374
      9 O1          4.0158   -1.7606    2.1531 O.3       1 <0>        -0.4984
     10 N1         -1.3723   -0.5112    0.0124 N.2       1 <0>        -0.3930
     11 C9         -1.7936   -1.2536   -0.9556 C.2       1 <0>         0.1019
     12 C10        -1.2120   -1.8175   -2.2340 C.3       1 <0>         0.0066
     13 C11        -2.2463   -2.9130   -2.0912 C.2       1 <0>         0.3568
     14 O2         -2.3592   -4.0616   -2.4476 O.2       1 <0>        -0.3577
     15 C12        -3.0638   -1.9409   -1.3076 C.2       1 <0>         0.3778
     16 O3         -4.2417   -1.7837   -1.0651 O.2       1 <0>        -0.3540
     17 N2         -1.4157   -0.9607   -3.4048 N.2       1 <0>        -0.5421
     18 C13        -0.3740   -0.4950   -4.0722 C.2       1 <0>         0.2650
     19 C14         1.0022   -0.8218   -3.6709 C.2       1 <0>        -0.2798
     20 C15         2.0081   -0.1065   -4.2140 C.2       1 <0>         0.1442
     21 N3          1.7504    0.8918   -5.1023 N.pl3     1 <0>        -0.6169
     22 C16         0.5410    1.0285   -5.7113 C.2       1 <0>         0.1194
     23 C17        -0.5420    0.3671   -5.2513 C.2       1 <0>        -0.1905
     24 H1          1.0039    1.9031    0.0027 H         1 <0>         0.0731
     25 H2         -0.5459    1.8868   -0.8726 H         1 <0>         0.0630
     26 H3         -0.5289    1.8773    0.9072 H         1 <0>         0.0724
     27 H4          0.5123   -0.3556   -0.8948 H         1 <0>         0.0700
     28 H5         -0.9502   -0.2430    2.5175 H         1 <0>         0.1345
     29 H6          0.2353   -1.0577    4.5144 H         1 <0>         0.1308
     30 H7          2.5840   -1.7755    4.3464 H         1 <0>         0.1303
     31 H8          2.5533   -0.8722    0.1693 H         1 <0>         0.1272
     32 H9          4.1264   -2.6989    1.9471 H         1 <0>         0.3915
     33 H10        -0.1843   -2.1666   -2.1336 H         1 <0>         0.1088
     34 H11         1.2016   -1.6115   -2.9617 H         1 <0>         0.1413
     35 H12         3.0292   -0.3280   -3.9408 H         1 <0>         0.1615
     36 H13         0.4476    1.6693   -6.5757 H         1 <0>         0.1674
     37 H14        -1.5039    0.4712   -5.7311 H         1 <0>         0.1528
     38 H15         2.4529    1.5282   -5.3083 H         1 <0>         0.4186
@<TRIPOS>BOND
     1    1    2 1
     2    1   24 1
     3    1   25 1
     4    1   26 1
     5    2    3 1
     6    2   27 1
     7    2   10 1
     8    3    8 ar
     9    3    4 ar
    10    4    5 ar
    11    4   28 1
    12    5    6 ar
    13    5   29 1
    14    6    7 ar
    15    6   30 1
    16    7    8 ar
    17    7    9 1
    18    8   31 1
    19    9   32 1
    20   10   11 2
    21   11   15 1
    22   11   12 1
    23   12   13 1
    24   12   17 1
    25   12   33 1
    26   13   14 2
    27   13   15 1
    28   15   16 2
    29   17   18 2
    30   18   23 1
    31   18   19 1
    32   19   20 2
    33   19   34 1
    34   20   21 1
    35   20   35 1
    36   21   22 1
    37   21   38 1
    38   22   23 2
    39   22   36 1
    40   23   37 1
@<TRIPOS>MOLECULE
CHEMBL467532__11
   39    41     0     0     0
SMALL
NO_CHARGES

@<TRIPOS>ATOM
      1 C1         -0.0187    1.5258    0.0104 C.3       1 <0>        -0.1365
      2 C2          0.0021   -0.0041    0.0020 C.3       1 <0>         0.0942
      3 C3          0.7074   -0.4901   -1.2379 C.ar      1 <0>        -0.0634
      4 C4          2.0894   -0.5105   -1.2833 C.ar      1 <0>        -0.1016
      5 C5          2.7395   -0.9558   -2.4192 C.ar      1 <0>        -0.1054
      6 C6          2.0095   -1.3812   -3.5124 C.ar      1 <0>        -0.1428
      7 C7          0.6232   -1.3616   -3.4694 C.ar      1 <0>         0.1047
      8 C8         -0.0269   -0.9200   -2.3258 C.ar      1 <0>        -0.1356
      9 O1         -0.0971   -1.7795   -4.5433 O.3       1 <0>        -0.4985
     10 N1          0.7106   -0.4894    1.1889 N.2       1 <0>        -0.4059
     11 C9          0.1016   -1.2444    2.0403 C.2       1 <0>         0.0725
     12 C10         0.4532   -1.9254    3.3453 C.3       1 <0>         0.1497
     13 C11        -1.0270   -1.8562    3.6527 C.2       1 <0>         0.2703
     14 O2         -1.7143   -1.8316    4.6457 O.2       1 <0>        -0.3876
     15 C12        -1.2591   -1.8267    2.1787 C.2       1 <0>         0.2572
     16 O3         -2.1595   -2.1382    1.4283 O.2       1 <0>        -0.3978
     17 N2          0.9604   -3.2902    3.1825 N.pl3     1 <0>        -0.6669
     18 C13         1.7868   -3.8459    4.1546 C.ar      1 <0>         0.0982
     19 C14         2.1388   -3.1220    5.2936 C.ar      1 <0>        -0.1549
     20 C15         2.9595   -3.7091    6.2334 C.ar      1 <0>         0.0494
     21 N3          3.4099   -4.9384    6.0652 N.ar      1 <0>        -0.5468
     22 C16         3.0999   -5.6555    5.0012 C.ar      1 <0>         0.0523
     23 C17         2.2798   -5.1435    4.0180 C.ar      1 <0>        -0.1539
     24 H1          1.0039    1.9031    0.0027 H         1 <0>         0.0715
     25 H2         -0.5459    1.8868   -0.8726 H         1 <0>         0.0721
     26 H3         -0.5289    1.8773    0.9072 H         1 <0>         0.0620
     27 H4         -1.0205   -0.3814    0.0098 H         1 <0>         0.0723
     28 H5          2.6619   -0.1778   -0.4301 H         1 <0>         0.1335
     29 H6          3.8189   -0.9708   -2.4523 H         1 <0>         0.1289
     30 H7          2.5178   -1.7283   -4.3999 H         1 <0>         0.1290
     31 H8         -1.1062   -0.9083   -2.2881 H         1 <0>         0.1286
     32 H9         -0.3072   -2.7234   -4.5328 H         1 <0>         0.3912
     33 H10         1.0691   -1.3168    4.0074 H         1 <0>         0.1355
     34 H11         0.7202   -3.8064    2.3972 H         1 <0>         0.4041
     35 H12         1.7741   -2.1157    5.4373 H         1 <0>         0.1407
     36 H13         3.2376   -3.1559    7.1183 H         1 <0>         0.1621
     37 H14         3.4899   -6.6577    4.9017 H         1 <0>         0.1616
     38 H15         2.0261   -5.7374    3.1524 H         1 <0>         0.1383
     39 H16         3.9857   -5.3259    6.7428 H         1 <0>         0.4177
@<TRIPOS>BOND
     1    1    2 1
     2    1   24 1
     3    1   25 1
     4    1   26 1
     5    2    3 1
     6    2   27 1
     7    2   10 1
     8    3    8 ar
     9    3    4 ar
    10    4    5 ar
    11    4   28 1
    12    5    6 ar
    13    5   29 1
    14    6    7 ar
    15    6   30 1
    16    7    8 ar
    17    7    9 1
    18    8   31 1
    19    9   32 1
    20   10   11 2
    21   11   15 1
    22   11   12 1
    23   12   13 1
    24   12   17 1
    25   12   33 1
    26   13   14 2
    27   13   15 1
    28   15   16 2
    29   17   18 1
    30   17   34 1
    31   18   23 ar
    32   18   19 ar
    33   19   20 ar
    34   19   35 1
    35   20   21 ar
    36   20   36 1
    37   21   22 ar
    38   21   39 1
    39   22   23 ar
    40   22   37 1
    41   23   38 1
@<TRIPOS>MOLECULE
CHEMBL373598
   53    55     0     0     0
SMALL
USER_CHARGES

@<TRIPOS>ATOM
      1 C1         -0.0167    1.3789    0.0096 C.ar      1 <0>        -0.0573
      2 C2          1.1660    2.0904    0.0022 C.ar      1 <0>         0.0903
      3 C3          2.3877    1.4156    0.0365 C.ar      1 <0>         0.1708
      4 C4          2.4079    0.0339    0.0425 C.ar      1 <0>        -0.2745
      5 C5          1.2165   -0.6774    0.0153 C.ar      1 <0>         0.1721
      6 C6          0.0021   -0.0041    0.0020 C.ar      1 <0>        -0.0908
      7 Cl1        -1.4876   -0.8951   -0.0240 Cl        1 <0>        -0.0483
      8 O1          1.2384   -2.0371    0.0011 O.3       1 <0>        -0.2963
      9 C7          2.5218   -2.6654    0.0156 C.3       1 <0>         0.0618
     10 C8          2.3458   -4.1852   -0.0035 C.3       1 <0>        -0.1225
     11 C9          3.7199   -4.8579    0.0119 C.3       1 <0>         0.0808
     12 O2          3.5555   -6.2773   -0.0059 O.3       1 <0>        -0.5710
     13 O3          3.5526    2.1149    0.0738 O.3       1 <0>        -0.2469
     14 C10         4.7224    1.4637   -0.4218 C.3       1 <0>         0.0538
     15 C11         5.9527    1.9794    0.3267 C.3       1 <0>        -0.1209
     16 C12         6.8612    2.7383   -0.6412 C.3       1 <0>        -0.1133
     17 C13         6.2730    4.1240   -0.9100 C.3       1 <0>        -0.1719
     18 C14         6.6070    4.5507   -2.3410 C.3       1 <0>         0.0705
     19 O4          6.3038    5.9382   -2.4978 O.3       1 <0>        -0.2928
     20 C15         4.9969    6.2793   -2.5963 C.ar      1 <0>         0.3616
     21 C16         4.6210    7.3426   -3.4324 C.ar      1 <0>         0.0879
     22 N1          3.3417    7.6988   -3.5235 N.ar      1 <0>        -0.3463
     23 C17         2.4291    7.0543   -2.8283 C.ar      1 <0>         0.0067
     24 C18         2.8005    5.9890   -2.0059 C.ar      1 <0>         0.3957
     25 N2          4.0698    5.6212   -1.9145 N.ar      1 <0>        -0.4745
     26 N3          1.8050    5.3449   -1.2532 N.am      1 <0>        -0.6666
     27 C19         2.1123    4.1022   -0.7745 C.2       1 <0>         0.6895
     28 O5          3.1791    3.5629   -0.9970 O.2       1 <0>        -0.4429
     29 N4          1.1302    3.5082   -0.0258 N.am      1 <0>        -0.6879
     30 C20         5.6147    8.0448   -4.1876 C.1       1 <0>         0.2763
     31 N5          6.4030    8.6018   -4.7866 N.1       1 <0>        -0.3803
     32 H1         -0.9603    1.9040    0.0260 H         1 <0>         0.1490
     33 H2          3.3506   -0.4924    0.0680 H         1 <0>         0.1471
     34 H3          3.0886   -2.3542   -0.8619 H         1 <0>         0.0663
     35 H4          3.0593   -2.3732    0.9177 H         1 <0>         0.0670
     36 H5          1.7790   -4.4963    0.8740 H         1 <0>         0.0845
     37 H6          1.8083   -4.4774   -0.9056 H         1 <0>         0.0843
     38 H7          4.2867   -4.5467   -0.8656 H         1 <0>         0.0493
     39 H8          4.2574   -4.5657    0.9141 H         1 <0>         0.0494
     40 H9          4.3877   -6.7697    0.0026 H         1 <0>         0.3854
     41 H10         4.6304    0.3881   -0.2712 H         1 <0>         0.0531
     42 H11         4.8310    1.6729   -1.4860 H         1 <0>         0.0714
     43 H12         5.6366    2.6479    1.1275 H         1 <0>         0.0796
     44 H13         6.4985    1.1371    0.7518 H         1 <0>         0.0706
     45 H14         7.8532    2.8435   -0.2019 H         1 <0>         0.0653
     46 H15         6.9352    2.1868   -1.5784 H         1 <0>         0.0626
     47 H16         5.1909    4.0901   -0.7842 H         1 <0>         0.1279
     48 H17         6.6982    4.8416   -0.2083 H         1 <0>         0.0638
     49 H18         7.6673    4.3855   -2.5325 H         1 <0>         0.1076
     50 H19         6.0132    3.9662   -3.0436 H         1 <0>         0.0669
     51 H20         1.3923    7.3498   -2.8937 H         1 <0>         0.1877
     52 H21         0.9453    5.7600   -1.0819 H         1 <0>         0.4292
     53 H22         0.4584    4.0205    0.4507 H         1 <0>         0.4193
@<TRIPOS>BOND
     1    1    6 ar
     2    1    2 ar
     3    1   32 1
     4    2   29 1
     5    2    3 ar
     6    3    4 ar
     7    3   13 1
     8    4    5 ar
     9    4   33 1
    10    5    6 ar
    11    5    8 1
    12    6    7 1
    13    8    9 1
    14    9   10 1
    15    9   34 1
    16    9   35 1
    17   10   11 1
    18   10   36 1
    19   10   37 1
    20   11   12 1
    21   11   38 1
    22   11   39 1
    23   12   40 1
    24   13   14 1
    25   14   15 1
    26   14   41 1
    27   14   42 1
    28   15   16 1
    29   15   43 1
    30   15   44 1
    31   16   17 1
    32   16   45 1
    33   16   46 1
    34   17   18 1
    35   17   47 1
    36   17   48 1
    37   18   19 1
    38   18   49 1
    39   18   50 1
    40   19   20 1
    41   20   25 ar
    42   20   21 ar
    43   21   22 ar
    44   21   30 1
    45   22   23 ar
    46   23   24 ar
    47   23   51 1
    48   24   25 ar
    49   24   26 1
    50   26   27 am
    51   26   52 1
    52   27   28 2
    53   27   29 am
    54   29   53 1
    55   30   31 3
@<TRIPOS>MOLECULE
CHEMBL562194
   41    45     0     0     0
SMALL
USER_CHARGES

@<TRIPOS>ATOM
      1 C1         -0.0187    1.5258    0.0104 C.3       1 <0>        -0.1631
      2 C2          0.0021   -0.0041    0.0020 C.3       1 <0>         0.1105
      3 H1         -1.0258   -0.3668    0.0099 H         1 <0>         0.0759
      4 C3          0.6718   -0.4728   -1.2698 C.3       1 <0>         0.1137
      5 N1          0.4743   -1.8799   -1.5202 N.pl3     1 <0>        -0.7272
      6 C4          1.0794   -2.8878   -0.7613 C.2       1 <0>         0.2514
      7 C5          1.3957   -4.1398   -1.3579 C.ar      1 <0>        -0.0961
      8 C6          1.9925   -5.1038   -0.5258 C.ar      1 <0>        -0.1044
      9 C7          2.3458   -6.3594   -0.9847 C.ar      1 <0>        -0.0617
     10 C8          2.1314   -6.7215   -2.2844 C.ar      1 <0>        -0.0505
     11 C9          1.5474   -5.8265   -3.1792 C.ar      1 <0>         0.0329
     12 C10         1.1718   -4.5495   -2.7552 C.ar      1 <0>        -0.0684
     13 C11         0.6144   -3.8932   -3.8766 C.2       1 <0>        -0.1977
     14 C12         0.6723   -4.7695   -4.9110 C.2       1 <0>         0.0892
     15 O1          1.2314   -5.9223   -4.4908 O.3       1 <0>        -0.1692
     16 C13         0.1974   -4.5018   -6.2844 C.ar      1 <0>        -0.0334
     17 C14        -0.3605   -3.2626   -6.6043 C.ar      1 <0>        -0.0910
     18 C15        -0.8019   -3.0193   -7.8884 C.ar      1 <0>        -0.1168
     19 C16        -0.6926   -4.0001   -8.8583 C.ar      1 <0>        -0.1044
     20 C17        -0.1407   -5.2304   -8.5480 C.ar      1 <0>        -0.1171
     21 C18         0.3099   -5.4849   -7.2693 C.ar      1 <0>        -0.0935
     22 S1          2.1145   -4.2837    1.0421 S.3       1 <0>         0.1733
     23 C19         1.3996   -2.7179    0.5747 C.2       1 <0>        -0.2900
     24 C20         1.2404   -1.6221    1.4208 C.2       1 <0>         0.6030
     25 O2          1.7098   -1.7592    2.5362 O.2       1 <0>        -0.5690
     26 N2          0.6641   -0.4642    1.1981 N.am      1 <0>        -0.6971
     27 H2          1.0039    1.9031    0.0027 H         1 <0>         0.0684
     28 H3         -0.5459    1.8868   -0.8726 H         1 <0>         0.0783
     29 H4         -0.5289    1.8773    0.9072 H         1 <0>         0.0701
     30 H5          0.2681    0.0937   -2.1090 H         1 <0>         0.1036
     31 H6          1.7413   -0.2753   -1.1972 H         1 <0>         0.0719
     32 H7         -0.1075   -2.1403   -2.2513 H         1 <0>         0.4005
     33 H8          2.7989   -7.0653   -0.3045 H         1 <0>         0.1507
     34 H9          2.4165   -7.7074   -2.6208 H         1 <0>         0.1473
     35 H10         0.2186   -2.8887   -3.9044 H         1 <0>         0.1548
     36 H11        -0.4467   -2.4964   -5.8481 H         1 <0>         0.1284
     37 H12        -1.2340   -2.0613   -8.1372 H         1 <0>         0.1318
     38 H13        -1.0401   -3.8045   -9.8620 H         1 <0>         0.1289
     39 H14        -0.0587   -5.9916   -9.3097 H         1 <0>         0.1307
     40 H15         0.7449   -6.4439   -7.0296 H         1 <0>         0.1310
     41 H16         0.6842    0.1642    1.9368 H         1 <0>         0.4046
@<TRIPOS>BOND
     1    1    2 1
     2    1   27 1
     3    1   28 1
     4    1   29 1
     5    2    3 1
     6    2   26 1
     7    2    4 1
     8    4    5 1
     9    4   30 1
    10    4   31 1
    11    5    6 1
    12    5   32 1
    13    6   23 2
    14    6    7 1
    15    7   12 ar
    16    7    8 ar
    17    8    9 ar
    18    8   22 1
    19    9   10 ar
    20    9   33 1
    21   10   11 ar
    22   10   34 1
    23   11   15 1
    24   11   12 ar
    25   12   13 1
    26   13   14 2
    27   13   35 1
    28   14   15 1
    29   14   16 1
    30   16   21 ar
    31   16   17 ar
    32   17   18 ar
    33   17   36 1
    34   18   19 ar
    35   18   37 1
    36   19   20 ar
    37   19   38 1
    38   20   21 ar
    39   20   39 1
    40   21   40 1
    41   22   23 1
    42   23   24 1
    43   24   25 2
    44   24   26 am
    45   26   41 1
@<TRIPOS>MOLECULE
CHEMBL549585
   41    45     0     0     0
SMALL
USER_CHARGES

@<TRIPOS>ATOM
      1 C1         -0.0187    1.5258    0.0104 C.3       1 <0>        -0.1637
      2 C2          0.0021   -0.0041    0.0020 C.3       1 <0>         0.1103
      3 H1         -1.0258   -0.3668    0.0099 H         1 <0>         0.0765
      4 C3          0.6717   -0.4727   -1.2697 C.3       1 <0>         0.1101
      5 N1          0.4740   -1.8796   -1.5211 N.pl3     1 <0>        -0.7323
      6 C4          1.0810   -2.8881   -0.7645 C.2       1 <0>         0.2474
      7 C5          1.3924   -4.1413   -1.3593 C.ar      1 <0>        -0.1233
      8 C6          1.1594   -4.5510   -2.7601 C.ar      1 <0>        -0.0453
      9 C7          0.5672   -3.6641   -3.6701 C.ar      1 <0>        -0.0763
     10 C8          0.3786   -4.0891   -4.9557 C.ar      1 <0>        -0.1457
     11 C9          0.7768   -5.3814   -5.3237 C.ar      1 <0>         0.1941
     12 N2          1.3305   -6.2065   -4.4549 N.ar      1 <0>        -0.4528
     13 C10         1.5352   -5.8420   -3.1853 C.ar      1 <0>         0.1395
     14 C11         2.1248   -6.7436   -2.2720 C.ar      1 <0>        -0.0535
     15 C12         2.3397   -6.3703   -0.9855 C.ar      1 <0>        -0.0596
     16 C13         1.9906   -5.1034   -0.5314 C.ar      1 <0>        -0.0944
     17 S1          2.1274   -4.2802    1.0345 S.3       1 <0>         0.1990
     18 C14         1.4040   -2.7171    0.5716 C.2       1 <0>        -0.2883
     19 C15         1.2411   -1.6225    1.4201 C.2       1 <0>         0.6025
     20 O1          1.7075   -1.7614    2.5364 O.2       1 <0>        -0.5672
     21 N3          0.6640   -0.4642    1.1982 N.am      1 <0>        -0.6963
     22 C16         0.5709   -5.8324   -6.7214 C.ar      1 <0>        -0.1595
     23 C17        -0.0071   -4.9859   -7.6713 C.ar      1 <0>         0.1702
     24 N4         -0.1724   -5.4281   -8.9060 N.ar      1 <0>        -0.5175
     25 C18         0.1991   -6.6468   -9.2451 C.ar      1 <0>         0.3039
     26 N5          0.7479   -7.4770   -8.3804 N.ar      1 <0>        -0.5189
     27 C19         0.9548   -7.1137   -7.1264 C.ar      1 <0>         0.1906
     28 H2          1.0039    1.9031    0.0027 H         1 <0>         0.0687
     29 H3         -0.5459    1.8868   -0.8726 H         1 <0>         0.0789
     30 H4         -0.5289    1.8773    0.9072 H         1 <0>         0.0705
     31 H5          0.2684    0.0943   -2.1087 H         1 <0>         0.1053
     32 H6          1.7412   -0.2756   -1.1969 H         1 <0>         0.0737
     33 H7         -0.1094   -2.1395   -2.2511 H         1 <0>         0.4008
     34 H8          0.2679   -2.6726   -3.3638 H         1 <0>         0.1476
     35 H9         -0.0750   -3.4327   -5.6835 H         1 <0>         0.1450
     36 H10         2.4060   -7.7338   -2.5990 H         1 <0>         0.1530
     37 H11         2.7912   -7.0719   -0.2997 H         1 <0>         0.1475
     38 H12         0.6835    0.1637    1.9373 H         1 <0>         0.4056
     39 H13        -0.3142   -3.9864   -7.4009 H         1 <0>         0.1718
     40 H14         0.0487   -6.9754  -10.2629 H         1 <0>         0.2015
     41 H15         1.4091   -7.7977   -6.4249 H         1 <0>         0.1804
@<TRIPOS>BOND
     1    1    2 1
     2    1   28 1
     3    1   29 1
     4    1   30 1
     5    2    3 1
     6    2   21 1
     7    2    4 1
     8    4    5 1
     9    4   31 1
    10    4   32 1
    11    5    6 1
    12    5   33 1
    13    6   18 2
    14    6    7 1
    15    7   16 ar
    16    7    8 ar
    17    8   13 ar
    18    8    9 ar
    19    9   10 ar
    20    9   34 1
    21   10   11 ar
    22   10   35 1
    23   11   12 ar
    24   11   22 1
    25   12   13 ar
    26   13   14 ar
    27   14   15 ar
    28   14   36 1
    29   15   16 ar
    30   15   37 1
    31   16   17 1
    32   17   18 1
    33   18   19 1
    34   19   20 2
    35   19   21 am
    36   21   38 1
    37   22   27 ar
    38   22   23 ar
    39   23   24 ar
    40   23   39 1
    41   24   25 ar
    42   25   26 ar
    43   25   40 1
    44   26   27 ar
    45   27   41 1
@<TRIPOS>MOLECULE
CHEMBL226351
   40    44     0     0     0
SMALL
USER_CHARGES

@<TRIPOS>ATOM
      1 C1         -0.0164    1.3547    0.0095 C.ar      1 <0>        -0.1239
      2 C2          1.1575    2.0972    0.0023 C.ar      1 <0>        -0.0885
      3 C3          2.3748    1.4461   -0.0129 C.ar      1 <0>        -0.0798
      4 C4          2.4084    0.0677   -0.0206 C.ar      1 <0>        -0.1087
      5 C5          1.2296   -0.7113   -0.0135 C.ar      1 <0>        -0.0980
      6 C6          0.0021   -0.0041    0.0020 C.ar      1 <0>        -0.0683
      7 C7          1.4489   -2.1468   -0.0238 C.2       1 <0>        -0.0871
      8 C8          2.7188   -2.6183   -0.0388 C.2       1 <0>        -0.1049
      9 S1          3.7106   -1.1371   -0.0401 S.3       1 <0>         0.0626
     10 C9          3.1733   -4.0247   -0.0508 C.ar      1 <0>         0.2209
     11 C10         4.5367   -4.3089   -0.0600 C.ar      1 <0>        -0.1456
     12 C11         4.9477   -5.6442   -0.0708 C.ar      1 <0>         0.0478
     13 C12         3.9629   -6.6417   -0.0719 C.ar      1 <0>        -0.1828
     14 C13         2.6332   -6.2757   -0.0624 C.ar      1 <0>         0.1241
     15 N1          2.2770   -5.0063   -0.0472 N.ar      1 <0>        -0.4779
     16 C14         6.3835   -5.9959   -0.0812 C.2       1 <0>         0.0134
     17 C15         7.4203   -5.1101   -0.0756 C.2       1 <0>        -0.0752
     18 C16         8.5985   -5.8675   -0.0889 C.2       1 <0>        -0.2323
     19 C17         8.2314   -7.2094   -0.1041 C.2       1 <0>         0.0800
     20 N2          6.8990   -7.2743   -0.0923 N.pl3     1 <0>        -0.5109
     21 H1          6.3760   -8.0913   -0.0938 H         1 <0>         0.4198
     22 C18         9.2722   -8.2994   -0.1262 C.3       1 <0>        -0.0706
     23 C19        10.5230   -7.7725   -0.8303 C.3       1 <0>         0.1239
     24 N3         10.9172   -6.4481   -0.3703 N.am      1 <0>        -0.7362
     25 C20        10.0187   -5.4754   -0.0870 C.2       1 <0>         0.5973
     26 O1         10.3665   -4.3357    0.1563 O.2       1 <0>        -0.5311
     27 H2         -0.9658    1.8693    0.0259 H         1 <0>         0.1297
     28 H3          1.1182    3.1765    0.0081 H         1 <0>         0.1365
     29 H4          3.2943    2.0124   -0.0190 H         1 <0>         0.1339
     30 H5         -0.9293   -0.5508    0.0084 H         1 <0>         0.1278
     31 H6          0.6115   -2.8288   -0.0192 H         1 <0>         0.1477
     32 H7          5.2640   -3.5105   -0.0591 H         1 <0>         0.1426
     33 H8          4.2421   -7.6849   -0.0804 H         1 <0>         0.1320
     34 H9          1.8714   -7.0412   -0.0636 H         1 <0>         0.1654
     35 H10         7.3472   -4.0326   -0.0636 H         1 <0>         0.1540
     36 H11         9.5217   -8.5869    0.8952 H         1 <0>         0.0969
     37 H12         8.8851   -9.1631   -0.6667 H         1 <0>         0.0988
     38 H13        11.3450   -8.4655   -0.6513 H         1 <0>         0.0947
     39 H14        10.3305   -7.7290   -1.9023 H         1 <0>         0.0676
     40 H15        11.8617   -6.2549   -0.2624 H         1 <0>         0.4041
@<TRIPOS>BOND
     1    1    6 ar
     2    1    2 ar
     3    1   27 1
     4    2    3 ar
     5    2   28 1
     6    3    4 ar
     7    3   29 1
     8    4    9 1
     9    4    5 ar
    10    5    6 ar
    11    5    7 1
    12    6   30 1
    13    7    8 2
    14    7   31 1
    15    8    9 1
    16    8   10 1
    17   10   15 ar
    18   10   11 ar
    19   11   12 ar
    20   11   32 1
    21   12   13 ar
    22   12   16 1
    23   13   14 ar
    24   13   33 1
    25   14   15 ar
    26   14   34 1
    27   16   20 1
    28   16   17 2
    29   17   18 1
    30   17   35 1
    31   18   25 1
    32   18   19 2
    33   19   20 1
    34   19   22 1
    35   20   21 1
    36   22   23 1
    37   22   36 1
    38   22   37 1
    39   23   24 1
    40   23   38 1
    41   23   39 1
    42   24   25 am
    43   24   40 1
    44   25   26 2
@<TRIPOS>MOLECULE
CHEMBL461316
   56    59     0     0     0
SMALL
USER_CHARGES

@<TRIPOS>ATOM
      1 C1          0.0810    1.4513   -0.2195 C.3       1 <0>        -0.1861
      2 C2          0.0235   -0.0657   -0.0286 C.3       1 <0>        -0.0183
      3 N1         -1.3740   -0.4851    0.1417 N.4       1 <0>        -0.3847
      4 C3         -2.1159   -0.2330   -1.1009 C.3       1 <0>        -0.0153
      5 C4         -3.5996   -0.5332   -0.8788 C.3       1 <0>        -0.1885
      6 C5         -1.4199   -1.9192    0.4571 C.3       1 <0>         0.0406
      7 C6         -0.7654   -2.1610    1.7928 C.ar      1 <0>        -0.1648
      8 C7          0.5924   -2.4197    1.8574 C.ar      1 <0>        -0.0934
      9 C8          1.1983   -2.6420    3.0763 C.ar      1 <0>        -0.1020
     10 C9          0.4376   -2.6049    4.2479 C.ar      1 <0>        -0.0152
     11 C10        -0.9331   -2.3425    4.1748 C.ar      1 <0>        -0.1129
     12 C11        -1.5242   -2.1175    2.9492 C.ar      1 <0>        -0.0886
     13 C12         1.0775   -2.8419    5.5541 C.2       1 <0>        -0.0925
     14 C13         0.3434   -2.8055    6.6779 C.2       1 <0>        -0.0872
     15 C14         0.9832   -3.0424    7.9838 C.ar      1 <0>         0.1541
     16 C15         0.2139   -3.0088    9.1462 C.ar      1 <0>        -0.1610
     17 C16         0.8386   -3.2364   10.3754 C.ar      1 <0>         0.0386
     18 C17         2.2179   -3.4893   10.3824 C.ar      1 <0>        -0.1521
     19 C18         2.9068   -3.5051    9.1874 C.ar      1 <0>         0.1197
     20 N2          2.2889   -3.2918    8.0426 N.ar      1 <0>        -0.4809
     21 C19         0.0662   -3.2107   11.6346 C.2       1 <0>         0.0503
     22 C20         0.5763   -3.4129   12.8774 C.2       1 <0>        -0.0730
     23 C21        -0.4902   -3.3031   13.7940 C.2       1 <0>        -0.2674
     24 C22        -1.6501   -3.0290   13.0527 C.2       1 <0>         0.3035
     25 N3         -1.2882   -2.9716   11.7388 N.pl3     1 <0>        -0.5282
     26 H1         -1.8873   -2.7936   10.9970 H         1 <0>         0.4228
     27 N4         -2.8156   -2.8774   13.6998 N.2       1 <0>        -0.5335
     28 C23        -2.9023   -2.9771   14.9944 C.2       1 <0>         0.4039
     29 N5         -1.8354   -3.2394   15.7898 N.am      1 <0>        -0.6502
     30 H2         -1.9528   -3.3042   16.7505 H         1 <0>         0.4266
     31 C24        -0.6073   -3.4111   15.2469 C.2       1 <0>         0.5651
     32 O1          0.3644   -3.6472   15.9435 O.2       1 <0>        -0.5131
     33 H3          1.1213    1.7764   -0.2339 H         1 <0>         0.1053
     34 H4         -0.3959    1.7171   -1.1628 H         1 <0>         0.0803
     35 H5         -0.4413    1.9409    0.6024 H         1 <0>         0.0784
     36 H6          0.4465   -0.5583   -0.9041 H         1 <0>         0.1287
     37 H7          0.5964   -0.3426    0.8564 H         1 <0>         0.1318
     38 H8         -1.9958    0.8109   -1.3903 H         1 <0>         0.1320
     39 H9         -1.7294   -0.8761   -1.8916 H         1 <0>         0.1296
     40 H10        -3.7314   -1.6000   -0.6980 H         1 <0>         0.0805
     41 H11        -3.9590    0.0285   -0.0166 H         1 <0>         0.0792
     42 H12        -4.1656   -0.2421   -1.7637 H         1 <0>         0.1061
     43 H13        -2.4579   -2.2496    0.4959 H         1 <0>         0.1373
     44 H14        -0.8894   -2.4779   -0.3139 H         1 <0>         0.1348
     45 H15         1.1791   -2.4480    0.9511 H         1 <0>         0.1329
     46 H16         2.2580   -2.8445    3.1251 H         1 <0>         0.1399
     47 H17        -1.5272   -2.3123    5.0762 H         1 <0>         0.1370
     48 H18        -2.5826   -1.9105    2.8916 H         1 <0>         0.1320
     49 H19         2.1370   -3.0448    5.6075 H         1 <0>         0.1438
     50 H20        -0.7160   -2.6026    6.6245 H         1 <0>         0.1315
     51 H21        -0.8465   -2.8100    9.0975 H         1 <0>         0.1313
     52 H22         2.7353   -3.6693   11.3132 H         1 <0>         0.1474
     53 H23         3.9691   -3.6996    9.1894 H         1 <0>         0.1678
     54 H24         1.6083   -3.6200   13.1191 H         1 <0>         0.1587
     55 H25        -3.8690   -2.8444   15.4572 H         1 <0>         0.2164
     56 H26        -1.7928    0.0386    0.8957 H         1 <0>         0.4211
@<TRIPOS>BOND
     1    1    2 1
     2    1   33 1
     3    1   34 1
     4    1   35 1
     5    2    3 1
     6    2   36 1
     7    2   37 1
     8    3    4 1
     9    3    6 1
    10    3   56 1
    11    4    5 1
    12    4   38 1
    13    4   39 1
    14    5   40 1
    15    5   41 1
    16    5   42 1
    17    6    7 1
    18    6   43 1
    19    6   44 1
    20    7   12 ar
    21    7    8 ar
    22    8    9 ar
    23    8   45 1
    24    9   10 ar
    25    9   46 1
    26   10   11 ar
    27   10   13 1
    28   11   12 ar
    29   11   47 1
    30   12   48 1
    31   13   14 2
    32   13   49 1
    33   14   15 1
    34   14   50 1
    35   15   20 ar
    36   15   16 ar
    37   16   17 ar
    38   16   51 1
    39   17   18 ar
    40   17   21 1
    41   18   19 ar
    42   18   52 1
    43   19   20 ar
    44   19   53 1
    45   21   25 1
    46   21   22 2
    47   22   23 1
    48   22   54 1
    49   23   31 1
    50   23   24 2
    51   24   25 1
    52   24   27 1
    53   25   26 1
    54   27   28 2
    55   28   29 1
    56   28   55 1
    57   29   30 1
    58   29   31 am
    59   31   32 2
@<TRIPOS>MOLECULE
CHEMBL461140
   54    57     0     0     0
SMALL
USER_CHARGES

@<TRIPOS>ATOM
      1 C1          0.8655   -0.3580   -0.9927 C.3       1 <0>        -0.0557
      2 N1         -0.0118   -0.0050    0.1314 N.4       1 <0>        -0.3902
      3 C2         -0.0443    1.4554    0.2873 C.3       1 <0>        -0.0481
      4 C3         -1.3696   -0.4996   -0.1331 C.3       1 <0>        -0.0042
      5 C4         -1.3621   -2.0295   -0.1431 C.3       1 <0>         0.0144
      6 O1         -1.0223   -2.5127    1.1581 O.3       1 <0>        -0.2734
      7 C5         -0.9763   -3.7245    1.3051 C.ar      1 <0>         0.1816
      8 C6         -1.2475   -4.5814    0.2117 C.ar      1 <0>        -0.2693
      9 C7         -1.1962   -5.9258    0.3761 C.ar      1 <0>        -0.0261
     10 C8         -0.8726   -6.4721    1.6385 C.ar      1 <0>        -0.1373
     11 C9         -0.6021   -5.6176    2.7310 C.ar      1 <0>        -0.0307
     12 C10        -0.6461   -4.2728    2.5675 C.ar      1 <0>        -0.1848
     13 C11        -0.8200   -7.8714    1.8083 C.2       1 <0>        -0.0436
     14 C12        -0.5043   -8.4049    3.0398 C.2       1 <0>        -0.1620
     15 C13        -0.4517   -9.8044    3.2097 C.2       1 <0>         0.2001
     16 C14        -0.1372  -10.3462    4.4598 C.2       1 <0>        -0.1417
     17 C15        -0.0914  -11.7421    4.6022 C.2       1 <0>         0.1574
     18 C16        -0.3640  -12.5517    3.4796 C.2       1 <0>        -0.1731
     19 C17        -0.6635  -11.9801    2.2908 C.2       1 <0>         0.1347
     20 N2         -0.7136  -10.6321    2.1536 N.pl3     1 <0>        -0.5541
     21 C18         0.2362  -12.3507    5.9008 C.2       1 <0>        -0.0471
     22 C19         0.3203  -13.7972    6.1713 C.2       1 <0>        -0.0901
     23 C20         0.6501  -13.9131    7.4997 C.2       1 <0>        -0.2983
     24 C21         0.7631  -12.5352    8.0232 C.2       1 <0>         0.2336
     25 N3          0.5083  -11.6882    7.0127 N.2       1 <0>        -0.4599
     26 N4          1.0778  -12.3893    9.3033 N.2       1 <0>        -0.4999
     27 C22         1.2850  -13.4344   10.0905 C.cat     1 <0>         0.3409
     28 N5          1.2061  -14.6839    9.7112 N.am      1 <0>        -0.6365
     29 H1          1.3740  -15.3872   10.3578 H         1 <0>         0.4152
     30 C23         0.8959  -15.0169    8.4387 C.2       1 <0>         0.5630
     31 O2          0.8228  -16.1811    8.0853 O.2       1 <0>        -0.5337
     32 H2          1.8730    0.0089   -0.7965 H         1 <0>         0.1296
     33 H3          0.8896   -1.4416   -1.1084 H         1 <0>         0.1201
     34 H4          0.4849    0.0966   -1.9073 H         1 <0>         0.1266
     35 H5         -0.4426    1.9089   -0.6204 H         1 <0>         0.1244
     36 H6         -0.6804    1.7164    1.1331 H         1 <0>         0.1262
     37 H7          0.9658    1.8244    0.4648 H         1 <0>         0.1277
     38 H8         -2.0438   -0.1446    0.6464 H         1 <0>         0.1465
     39 H9         -1.7081   -0.1315   -1.1016 H         1 <0>         0.1549
     40 H10        -2.3506   -2.3959   -0.4201 H         1 <0>         0.1234
     41 H11        -0.6274   -2.3845   -0.8658 H         1 <0>         0.1014
     42 H12        -1.4955   -4.1642   -0.7531 H         1 <0>         0.1348
     43 H13        -1.4030   -6.5799   -0.4581 H         1 <0>         0.1318
     44 H14        -0.3552   -6.0363    3.6955 H         1 <0>         0.1429
     45 H15        -0.4343   -3.6200    3.4013 H         1 <0>         0.1403
     46 H16        -1.0269   -8.5248    0.9737 H         1 <0>         0.1190
     47 H17        -0.2973   -7.7515    3.8744 H         1 <0>         0.1569
     48 H18         0.0675   -9.7016    5.3018 H         1 <0>         0.1729
     49 H19        -0.3334  -13.6276    3.5692 H         1 <0>         0.1671
     50 H20        -0.8705  -12.6084    1.4370 H         1 <0>         0.1883
     51 H21         0.1563  -14.6011    5.4690 H         1 <0>         0.1327
     52 H22         1.5381  -13.2404   11.1223 H         1 <0>         0.1928
     53 H23         0.3405   -0.4258    0.9781 H         1 <0>         0.4334
     54 H24        -0.9352  -10.2486    1.2906 H         1 <0>         0.4253
@<TRIPOS>BOND
     1    1    2 1
     2    1   32 1
     3    1   33 1
     4    1   34 1
     5    2    3 1
     6    2    4 1
     7    2   53 1
     8    3   35 1
     9    3   36 1
    10    3   37 1
    11    4    5 1
    12    4   38 1
    13    4   39 1
    14    5    6 1
    15    5   40 1
    16    5   41 1
    17    6    7 1
    18    7   12 ar
    19    7    8 ar
    20    8    9 ar
    21    8   42 1
    22    9   10 ar
    23    9   43 1
    24   10   11 ar
    25   10   13 1
    26   11   12 ar
    27   11   44 1
    28   12   45 1
    29   13   14 2
    30   13   46 1
    31   14   15 1
    32   14   47 1
    33   15   20 1
    34   15   16 2
    35   16   17 1
    36   16   48 1
    37   17   18 1
    38   17   21 1
    39   18   19 2
    40   18   49 1
    41   19   20 1
    42   19   50 1
    43   20   54 1
    44   21   25 2
    45   21   22 1
    46   22   23 2
    47   22   51 1
    48   23   30 1
    49   23   24 1
    50   24   25 1
    51   24   26 2
    52   26   27 1
    53   27   28 2
    54   27   52 1
    55   28   29 1
    56   28   30 am
    57   30   31 2
@<TRIPOS>MOLECULE
CHEMBL461140__1
   54    57     0     0     0
SMALL
USER_CHARGES

@<TRIPOS>ATOM
      1 C1         -0.0178    1.4648    0.0101 C.3       1 <0>        -0.0546
      2 N1          0.0021   -0.0041    0.0020 N.4       1 <0>        -0.3888
      3 C2         -1.3761   -0.5125    0.0124 C.3       1 <0>        -0.0475
      4 C3          0.6897   -0.4778   -1.2066 C.3       1 <0>        -0.0016
      5 C4          2.1588   -0.0534   -1.1571 C.3       1 <0>         0.0238
      6 O1          2.8089   -0.7134   -0.0690 O.3       1 <0>        -0.3282
      7 C5          4.1273   -0.4444    0.1162 C.ar      1 <0>         0.1133
      8 C6          4.7788    0.4428   -0.7313 C.ar      1 <0>        -0.2008
      9 C7          6.1160    0.7188   -0.5474 C.ar      1 <0>        -0.0612
     10 C8          6.8174    0.1043    0.4943 C.ar      1 <0>        -0.0784
     11 C9          6.1574   -0.7879    1.3446 C.ar      1 <0>        -0.0708
     12 C10         4.8187   -1.0532    1.1562 C.ar      1 <0>        -0.1387
     13 C11         8.2473    0.3955    0.6949 C.2       1 <0>        -0.0688
     14 C12         8.9192   -0.1961    1.6965 C.2       1 <0>        -0.1133
     15 C13        10.3491    0.0952    1.8971 C.ar      1 <0>         0.1636
     16 C14        11.0420   -0.5269    2.9353 C.ar      1 <0>        -0.1646
     17 C15        12.3978   -0.2378    3.1097 C.ar      1 <0>         0.0374
     18 C16        13.0022    0.6696    2.2274 C.ar      1 <0>        -0.1571
     19 C17        12.2461    1.2418    1.2259 C.ar      1 <0>         0.1194
     20 N2         10.9694    0.9453    1.0827 N.ar      1 <0>        -0.4837
     21 C18        13.1745   -0.8711    4.1953 C.2       1 <0>         0.0537
     22 C19        14.4907   -0.6553    4.4535 C.2       1 <0>        -0.0755
     23 C20        14.8381   -1.4495    5.5661 C.2       1 <0>        -0.2669
     24 C21        13.6833   -2.1437    5.9591 C.2       1 <0>         0.3013
     25 N3         12.6789   -1.7724    5.1143 N.pl3     1 <0>        -0.5276
     26 H1         11.7641   -2.0928    5.1519 H         1 <0>         0.4232
     27 N4         13.7502   -2.9772    7.0085 N.2       1 <0>        -0.5323
     28 C22        14.8542   -3.1608    7.6725 C.2       1 <0>         0.4019
     29 N5         16.0165   -2.5329    7.3645 N.am      1 <0>        -0.6505
     30 H2         16.8129   -2.7042    7.8911 H         1 <0>         0.4261
     31 C23        16.0685   -1.6684    6.3242 C.2       1 <0>         0.5652
     32 O2         17.1025   -1.0944    6.0303 O.2       1 <0>        -0.5142
     33 H3          1.0047    1.8421    0.0024 H         1 <0>         0.1215
     34 H4         -0.5450    1.8259   -0.8730 H         1 <0>         0.1248
     35 H5         -0.5280    1.8163    0.9069 H         1 <0>         0.1274
     36 H6         -1.9033   -0.1515   -0.8706 H         1 <0>         0.1232
     37 H7         -1.3613   -1.6024    0.0065 H         1 <0>         0.1248
     38 H8         -1.8863   -0.1610    0.9092 H         1 <0>         0.1259
     39 H9          0.6270   -1.5648   -1.2578 H         1 <0>         0.1427
     40 H10         0.2158   -0.0447   -2.0875 H         1 <0>         0.1497
     41 H11         2.6477   -0.3267   -2.0922 H         1 <0>         0.1096
     42 H12         2.2206    1.0258   -1.0166 H         1 <0>         0.0876
     43 H13         4.2362    0.9167   -1.5359 H         1 <0>         0.1296
     44 H14         6.6217    1.4084   -1.2070 H         1 <0>         0.1362
     45 H15         6.6952   -1.2653    2.1504 H         1 <0>         0.1385
     46 H16         4.3069   -1.7389    1.8152 H         1 <0>         0.1350
     47 H17         8.7555    1.0847    0.0368 H         1 <0>         0.1395
     48 H18         8.4110   -0.8853    2.3546 H         1 <0>         0.1299
     49 H19        10.5391   -1.2199    3.5936 H         1 <0>         0.1307
     50 H20        14.0481    0.9179    2.3313 H         1 <0>         0.1456
     51 H21        12.7084    1.9412    0.5451 H         1 <0>         0.1660
     52 H22        15.1500    0.0028    3.9069 H         1 <0>         0.1583
     53 H23        14.8446   -3.8449    8.5081 H         1 <0>         0.2159
     54 H24         0.4901   -0.3383    0.8195 H         1 <0>         0.4338
@<TRIPOS>BOND
     1    1    2 1
     2    1   33 1
     3    1   34 1
     4    1   35 1
     5    2    3 1
     6    2    4 1
     7    2   54 1
     8    3   36 1
     9    3   37 1
    10    3   38 1
    11    4    5 1
    12    4   39 1
    13    4   40 1
    14    5    6 1
    15    5   41 1
    16    5   42 1
    17    6    7 1
    18    7   12 ar
    19    7    8 ar
    20    8    9 ar
    21    8   43 1
    22    9   10 ar
    23    9   44 1
    24   10   11 ar
    25   10   13 1
    26   11   12 ar
    27   11   45 1
    28   12   46 1
    29   13   14 2
    30   13   47 1
    31   14   15 1
    32   14   48 1
    33   15   20 ar
    34   15   16 ar
    35   16   17 ar
    36   16   49 1
    37   17   18 ar
    38   17   21 1
    39   18   19 ar
    40   18   50 1
    41   19   20 ar
    42   19   51 1
    43   21   25 1
    44   21   22 2
    45   22   23 1
    46   22   52 1
    47   23   31 1
    48   23   24 2
    49   24   25 1
    50   24   27 1
    51   25   26 1
    52   27   28 2
    53   28   29 1
    54   28   53 1
    55   29   30 1
    56   29   31 am
    57   31   32 2
@<TRIPOS>MOLECULE
CHEMBL226350
   43    47     0     0     0
SMALL
USER_CHARGES

@<TRIPOS>ATOM
      1 C1         -0.0164    1.3570    0.0095 C.ar      1 <0>        -0.1103
      2 C2          1.1683    2.0911    0.0021 C.ar      1 <0>        -0.1189
      3 C3          2.3780    1.4679   -0.0131 C.ar      1 <0>        -0.0994
      4 C4          2.4370    0.0629   -0.0211 C.ar      1 <0>        -0.0596
      5 C5          3.6676   -0.6119   -0.0363 C.ar      1 <0>        -0.0547
      6 C6          3.6851   -1.9940   -0.0434 C.ar      1 <0>        -0.0557
      7 C7          2.4850   -2.7235   -0.0361 C.ar      1 <0>        -0.0986
      8 C8          1.2843   -2.0893   -0.0218 C.ar      1 <0>        -0.1064
      9 C9          1.2318   -0.6838   -0.0132 C.ar      1 <0>        -0.0425
     10 C10         0.0021   -0.0041    0.0020 C.ar      1 <0>        -0.1100
     11 C11         4.9824   -2.7128   -0.0595 C.ar      1 <0>         0.1845
     12 C12         4.9987   -4.1032   -0.0723 C.ar      1 <0>        -0.1524
     13 C13         6.2303   -4.7642   -0.0873 C.ar      1 <0>         0.0435
     14 C14         7.3983   -3.9900   -0.0887 C.ar      1 <0>        -0.1879
     15 C15         7.2942   -2.6148   -0.0754 C.ar      1 <0>         0.1206
     16 N1          6.1163   -2.0221   -0.0668 N.ar      1 <0>        -0.4846
     17 C16         6.2988   -6.2408   -0.1009 C.2       1 <0>         0.0162
     18 C17         5.2298   -7.0875   -0.1063 C.2       1 <0>        -0.0778
     19 C18         5.7461   -8.3895   -0.1194 C.2       1 <0>        -0.2325
     20 C19         7.1336   -8.2878   -0.1198 C.2       1 <0>         0.0782
     21 N2          7.4540   -6.9929   -0.1161 N.pl3     1 <0>        -0.5113
     22 H1          8.3564   -6.6370   -0.1207 H         1 <0>         0.4196
     23 C20         8.0028   -9.5192   -0.1271 C.3       1 <0>        -0.0705
     24 C21         7.2535  -10.6557    0.5691 C.3       1 <0>         0.1239
     25 N3          5.8723  -10.7806    0.1241 N.am      1 <0>        -0.7361
     26 C22         5.0877   -9.7075   -0.1333 C.2       1 <0>         0.5975
     27 O1          3.8994   -9.8256   -0.3640 O.2       1 <0>        -0.5322
     28 H2         -0.9634    1.8759    0.0259 H         1 <0>         0.1244
     29 H3          1.1256    3.1702    0.0083 H         1 <0>         0.1246
     30 H4          3.2880    2.0494   -0.0194 H         1 <0>         0.1290
     31 H5          4.5933   -0.0557   -0.0427 H         1 <0>         0.1415
     32 H6          2.5175   -3.8030   -0.0422 H         1 <0>         0.1287
     33 H7          0.3699   -2.6641   -0.0170 H         1 <0>         0.1324
     34 H8         -0.9244   -0.5591    0.0082 H         1 <0>         0.1286
     35 H9          4.0752   -4.6631   -0.0704 H         1 <0>         0.1438
     36 H10         8.3684   -4.4644   -0.0998 H         1 <0>         0.1286
     37 H11         8.1915   -2.0138   -0.0764 H         1 <0>         0.1614
     38 H12         4.1866   -6.8081   -0.1012 H         1 <0>         0.1533
     39 H13         8.2243   -9.8038   -1.1557 H         1 <0>         0.0966
     40 H14         8.9316   -9.3139    0.4052 H         1 <0>         0.0986
     41 H15         7.7729  -11.5930    0.3694 H         1 <0>         0.0946
     42 H16         7.2611  -10.4748    1.6439 H         1 <0>         0.0675
     43 H17         5.4996  -11.6684    0.0070 H         1 <0>         0.4040
@<TRIPOS>BOND
     1    1   10 ar
     2    1    2 ar
     3    1   28 1
     4    2    3 ar
     5    2   29 1
     6    3    4 ar
     7    3   30 1
     8    4    9 ar
     9    4    5 ar
    10    5    6 ar
    11    5   31 1
    12    6    7 ar
    13    6   11 1
    14    7    8 ar
    15    7   32 1
    16    8    9 ar
    17    8   33 1
    18    9   10 ar
    19   10   34 1
    20   11   16 ar
    21   11   12 ar
    22   12   13 ar
    23   12   35 1
    24   13   14 ar
    25   13   17 1
    26   14   15 ar
    27   14   36 1
    28   15   16 ar
    29   15   37 1
    30   17   21 1
    31   17   18 2
    32   18   19 1
    33   18   38 1
    34   19   26 1
    35   19   20 2
    36   20   21 1
    37   20   23 1
    38   21   22 1
    39   23   24 1
    40   23   39 1
    41   23   40 1
    42   24   25 1
    43   24   41 1
    44   24   42 1
    45   25   26 am
    46   25   43 1
    47   26   27 2
@<TRIPOS>MOLECULE
CHEMBL247509
   40    43     0     0     0
SMALL
USER_CHARGES

@<TRIPOS>ATOM
      1 C1         -0.0115    1.5425    0.0097 C.3       1 <0>        -0.1451
      2 C2          0.0049    0.0126    0.0066 C.3       1 <0>        -0.0436
      3 C3         -1.4300   -0.5149    0.0359 C.3       1 <0>         0.1147
      4 N1         -2.0589   -0.3489    1.3398 N.am      1 <0>        -0.7148
      5 C4         -1.3860   -0.5291    2.4992 C.2       1 <0>         0.5938
      6 O1         -1.9562   -0.5157    3.5736 O.2       1 <0>        -0.5309
      7 C5          0.0690   -0.7428    2.4023 C.2       1 <0>         0.0030
      8 C6          0.7334   -0.4867    1.2272 C.2       1 <0>        -0.0918
      9 C7          2.0817   -0.7738    1.4360 C.ar      1 <0>        -0.1139
     10 C8          3.2032   -0.6963    0.6010 C.ar      1 <0>         0.0231
     11 C9          4.4273   -1.0733    1.1557 C.ar      1 <0>        -0.1734
     12 C10         4.5311   -1.5081    2.4825 C.ar      1 <0>        -0.0630
     13 C11         3.4442   -1.5879    3.3109 C.ar      1 <0>        -0.1267
     14 C12         2.2052   -1.2174    2.7842 C.ar      1 <0>         0.1316
     15 N2          0.9626   -1.1877    3.3445 N.pl3     1 <0>        -0.5359
     16 H1          0.7463   -1.4386    4.2562 H         1 <0>         0.4298
     17 C13         5.6439   -1.0124    0.3218 C.2       1 <0>         0.5664
     18 O2          5.5716   -0.6375   -0.8325 O.2       1 <0>        -0.5146
     19 N3          6.8349   -1.3724    0.8400 N.am      1 <0>        -0.6705
     20 C14         7.9670   -1.4089    0.0264 C.ar      1 <0>         0.1894
     21 C15         8.1401   -0.4816   -1.0001 C.ar      1 <0>        -0.1753
     22 C16         9.2740   -0.5518   -1.7826 C.ar      1 <0>         0.1169
     23 N4         10.1867   -1.4808   -1.5693 N.ar      1 <0>        -0.4967
     24 C17        10.0592   -2.3761   -0.6081 C.ar      1 <0>         0.1175
     25 C18         8.9577   -2.3701    0.2222 C.ar      1 <0>        -0.2015
     26 H2          1.0122    1.9168   -0.0008 H         1 <0>         0.0636
     27 H3         -0.5388    1.9020   -0.8739 H         1 <0>         0.0671
     28 H4         -0.5194    1.8986    0.9059 H         1 <0>         0.0559
     29 H5          0.5089   -0.3452   -0.8912 H         1 <0>         0.1067
     30 H6         -2.0178    0.0204   -0.7098 H         1 <0>         0.0961
     31 H7         -1.4214   -1.5746   -0.2191 H         1 <0>         0.0715
     32 H8         -2.9955   -0.0994    1.3778 H         1 <0>         0.4115
     33 H9          3.1248   -0.3614   -0.4228 H         1 <0>         0.1501
     34 H10         5.5010   -1.7896    2.8653 H         1 <0>         0.1270
     35 H11         3.5412   -1.9245    4.3326 H         1 <0>         0.1409
     36 H12         6.9046   -1.6061    1.7788 H         1 <0>         0.4134
     37 H13         7.3967    0.2808   -1.1805 H         1 <0>         0.1501
     38 H14         9.4165    0.1625   -2.5801 H         1 <0>         0.1600
     39 H15        10.8291   -3.1202   -0.4671 H         1 <0>         0.1600
     40 H16         8.8617   -3.1028    1.0099 H         1 <0>         0.1379
@<TRIPOS>BOND
     1    1    2 1
     2    1   26 1
     3    1   27 1
     4    1   28 1
     5    2    8 1
     6    2    3 1
     7    2   29 1
     8    3    4 1
     9    3   30 1
    10    3   31 1
    11    4    5 am
    12    4   32 1
    13    5    6 2
    14    5    7 1
    15    7   15 1
    16    7    8 2
    17    8    9 1
    18    9   14 ar
    19    9   10 ar
    20   10   11 ar
    21   10   33 1
    22   11   12 ar
    23   11   17 1
    24   12   13 ar
    25   12   34 1
    26   13   14 ar
    27   13   35 1
    28   14   15 1
    29   15   16 1
    30   17   18 2
    31   17   19 am
    32   19   20 1
    33   19   36 1
    34   20   25 ar
    35   20   21 ar
    36   21   22 ar
    37   21   37 1
    38   22   23 ar
    39   22   38 1
    40   23   24 ar
    41   24   25 ar
    42   24   39 1
    43   25   40 1
@<TRIPOS>MOLECULE
CHEMBL247509__1
   40    43     0     0     0
SMALL
USER_CHARGES

@<TRIPOS>ATOM
      1 C1         -0.0156    1.5096    0.0039 C.3       1 <0>        -0.1453
      2 C2         -0.0016   -0.0203   -0.0033 C.3       1 <0>        -0.0435
      3 C3          0.7224   -0.5199   -1.2541 C.3       1 <0>         0.1148
      4 N1          2.1652   -0.3317   -1.1762 N.am      1 <0>        -0.7148
      5 C4          2.8612   -0.5161   -0.0312 C.2       1 <0>         0.5937
      6 O1          4.0771   -0.4830   -0.0143 O.2       1 <0>        -0.5310
      7 C5          2.0804   -0.7584    1.1951 C.2       1 <0>         0.0030
      8 C6          0.7265   -0.5240    1.2158 C.2       1 <0>        -0.0918
      9 C7          0.2661   -0.8357    2.4944 C.ar      1 <0>        -0.1139
     10 C8         -1.0065   -0.7864    3.0769 C.ar      1 <0>         0.0231
     11 C9         -1.1025   -1.1822    4.4120 C.ar      1 <0>        -0.1734
     12 C10         0.0180   -1.6081    5.1355 C.ar      1 <0>        -0.0631
     13 C11         1.2681   -1.6605    4.5800 C.ar      1 <0>        -0.1267
     14 C12         1.3959   -1.2708    3.2452 C.ar      1 <0>         0.1316
     15 N2          2.4841   -1.2132    2.4257 N.pl3     1 <0>        -0.5359
     16 H1          3.3914   -1.4529    2.6711 H         1 <0>         0.4298
     17 C13        -2.4193   -1.1504    5.0785 C.2       1 <0>         0.5664
     18 O2         -3.4025   -0.7829    4.4650 O.2       1 <0>        -0.5146
     19 N3         -2.5316   -1.5288    6.3672 N.am      1 <0>        -0.6704
     20 C14        -3.7548   -1.4064    7.0258 C.ar      1 <0>         0.1893
     21 C15        -4.9556   -1.6136    6.3484 C.ar      1 <0>        -0.1753
     22 C16        -6.1443   -1.4829    7.0360 C.ar      1 <0>         0.1169
     23 N4         -6.1534   -1.1659    8.3171 N.ar      1 <0>        -0.4967
     24 C17        -5.0385   -0.9619    8.9930 C.ar      1 <0>         0.1176
     25 C18        -3.8084   -1.0793    8.3800 C.ar      1 <0>        -0.2015
     26 H2          1.0086    1.8824   -0.0058 H         1 <0>         0.0560
     27 H3         -0.5427    1.8722   -0.8786 H         1 <0>         0.0671
     28 H4         -0.5228    1.8641    0.9012 H         1 <0>         0.0635
     29 H5         -1.0252   -0.3948    0.0022 H         1 <0>         0.1067
     30 H6          0.5117   -1.5816   -1.3831 H         1 <0>         0.0716
     31 H7          0.3425    0.0208   -2.1210 H         1 <0>         0.0960
     32 H8          2.6448   -0.0644   -1.9758 H         1 <0>         0.4115
     33 H9         -1.8717   -0.4578    2.5202 H         1 <0>         0.1501
     34 H10        -0.1081   -1.9047    6.1663 H         1 <0>         0.1269
     35 H11         2.1225   -1.9909    5.1520 H         1 <0>         0.1409
     36 H12        -1.7617   -1.8863    6.8366 H         1 <0>         0.4134
     37 H13        -4.9552   -1.8726    5.2999 H         1 <0>         0.1502
     38 H14        -7.0793   -1.6416    6.5194 H         1 <0>         0.1600
     39 H15        -5.0897   -0.7038   10.0405 H         1 <0>         0.1600
     40 H16        -2.8996   -0.9155    8.9400 H         1 <0>         0.1379
@<TRIPOS>BOND
     1    1    2 1
     2    1   26 1
     3    1   27 1
     4    1   28 1
     5    2    8 1
     6    2    3 1
     7    2   29 1
     8    3    4 1
     9    3   30 1
    10    3   31 1
    11    4    5 am
    12    4   32 1
    13    5    6 2
    14    5    7 1
    15    7   15 1
    16    7    8 2
    17    8    9 1
    18    9   14 ar
    19    9   10 ar
    20   10   11 ar
    21   10   33 1
    22   11   12 ar
    23   11   17 1
    24   12   13 ar
    25   12   34 1
    26   13   14 ar
    27   13   35 1
    28   14   15 1
    29   15   16 1
    30   17   18 2
    31   17   19 am
    32   19   20 1
    33   19   36 1
    34   20   25 ar
    35   20   21 ar
    36   21   22 ar
    37   21   37 1
    38   22   23 ar
    39   22   38 1
    40   23   24 ar
    41   24   25 ar
    42   24   39 1
    43   25   40 1
@<TRIPOS>MOLECULE
CHEMBL388391
   34    37     0     0     0
SMALL
USER_CHARGES

@<TRIPOS>ATOM
      1 C1         -0.0169    1.3973    0.0097 C.ar      1 <0>        -0.1888
      2 C2          1.1771    2.0867    0.0020 C.ar      1 <0>         0.1206
      3 N1          2.3311    1.4482   -0.0124 N.ar      1 <0>        -0.4835
      4 C3          2.4000    0.1217   -0.0202 C.ar      1 <0>         0.1993
      5 C4          1.2419   -0.6487   -0.0133 C.ar      1 <0>        -0.1526
      6 C5          0.0021   -0.0041    0.0020 C.ar      1 <0>         0.0443
      7 C6         -1.2563   -0.7799    0.0103 C.2       1 <0>         0.0165
      8 C7         -1.3531   -2.1401    0.0100 C.2       1 <0>        -0.0782
      9 C8         -2.7196   -2.4476    0.0205 C.2       1 <0>        -0.2326
     10 C9         -3.4177   -1.2442    0.0252 C.2       1 <0>         0.0782
     11 N2         -2.5286   -0.2497    0.0258 N.pl3     1 <0>        -0.5112
     12 H1         -2.7433    0.6962    0.0339 H         1 <0>         0.4197
     13 C10        -4.9248   -1.2204    0.0315 C.3       1 <0>        -0.0706
     14 C11        -5.4406   -2.4771   -0.6703 C.3       1 <0>         0.1239
     15 N3         -4.7656   -3.6901   -0.2298 N.am      1 <0>        -0.7361
     16 C12        -3.4371   -3.7344    0.0283 C.2       1 <0>         0.5975
     17 O1         -2.8652   -4.7834    0.2555 O.2       1 <0>        -0.5323
     18 C13         3.7242   -0.5442   -0.0369 C.2       1 <0>        -0.0843
     19 C14         4.8968    0.1994    0.0649 C.2       1 <0>        -0.1291
     20 C15         6.0853   -0.4439    0.0459 C.2       1 <0>        -0.1769
     21 S1          5.5900   -2.1505   -0.1190 S.3       1 <0>         0.0594
     22 C16         3.8224   -1.9040   -0.1471 C.2       1 <0>        -0.1551
     23 H2         -0.9558    1.9308    0.0260 H         1 <0>         0.1285
     24 H3          1.1673    3.1666    0.0076 H         1 <0>         0.1611
     25 H4          1.2998   -1.7271   -0.0200 H         1 <0>         0.1414
     26 H5         -0.5343   -2.8443    0.0029 H         1 <0>         0.1532
     27 H6         -5.2855   -1.2021    1.0599 H         1 <0>         0.0966
     28 H7         -5.2783   -0.3353   -0.4975 H         1 <0>         0.0986
     29 H8         -6.5077   -2.5772   -0.4718 H         1 <0>         0.0946
     30 H9         -5.2946   -2.3643   -1.7445 H         1 <0>         0.0675
     31 H10        -5.2890   -4.4989   -0.1164 H         1 <0>         0.4040
     32 H11         4.8573    1.2747    0.1574 H         1 <0>         0.1463
     33 H12         7.0808   -0.0305    0.1128 H         1 <0>         0.1891
     34 H13         3.0347   -2.6381   -0.2311 H         1 <0>         0.1909
@<TRIPOS>BOND
     1    1    6 ar
     2    1    2 ar
     3    1   23 1
     4    2    3 ar
     5    2   24 1
     6    3    4 ar
     7    4    5 ar
     8    4   18 1
     9    5    6 ar
    10    5   25 1
    11    6    7 1
    12    7   11 1
    13    7    8 2
    14    8    9 1
    15    8   26 1
    16    9   16 1
    17    9   10 2
    18   10   11 1
    19   10   13 1
    20   11   12 1
    21   13   14 1
    22   13   27 1
    23   13   28 1
    24   14   15 1
    25   14   29 1
    26   14   30 1
    27   15   16 am
    28   15   31 1
    29   16   17 2
    30   18   22 2
    31   18   19 1
    32   19   20 2
    33   19   32 1
    34   20   21 1
    35   20   33 1
    36   21   22 1
    37   22   34 1
@<TRIPOS>MOLECULE
CHEMBL555205
   35    37     0     0     0
SMALL
USER_CHARGES

@<TRIPOS>ATOM
      1 C1         -0.0173    1.4248    0.0099 C.3       1 <0>         0.0225
      2 O1          0.0021   -0.0041    0.0020 O.3       1 <0>        -0.3150
      3 C2          0.6263   -0.6188    1.0422 C.ar      1 <0>         0.1274
      4 C3          1.2006    0.1549    2.0489 C.ar      1 <0>        -0.1508
      5 C4          1.8360   -0.4652    3.1043 C.ar      1 <0>        -0.0408
      6 C5          1.8949   -1.8447    3.1513 C.ar      1 <0>        -0.1261
      7 C6          1.3227   -2.6550    2.1546 C.ar      1 <0>        -0.0962
      8 C7          0.6740   -1.9904    1.0840 C.ar      1 <0>        -0.1048
      9 C8          1.4626   -4.1054    2.3482 C.2       1 <0>         0.2530
     10 C9          2.1374   -4.5197    3.4793 C.2       1 <0>        -0.2984
     11 S1          2.5989   -3.0028    4.2940 S.3       1 <0>         0.1508
     12 C10         2.4286   -5.8021    3.9483 C.2       1 <0>         0.6031
     13 O2          2.9782   -5.8406    5.0343 O.2       1 <0>        -0.5320
     14 N1          2.2010   -6.9734    3.3994 N.am      1 <0>        -0.7249
     15 C11         1.5959   -7.2651    2.1229 C.3       1 <0>         0.0985
     16 H1          1.2077   -8.2834    2.1447 H         1 <0>         0.1304
     17 C12         0.4683   -6.3239    1.7644 C.3       1 <0>         0.1130
     18 N2          0.9335   -5.0030    1.4171 N.pl3     1 <0>        -0.7295
     19 C13         2.6710   -7.1742    1.0381 C.3       1 <0>        -0.0303
     20 N3          3.7906   -8.0606    1.3828 N.4       1 <0>        -0.6355
     21 H2          1.0053    1.8021    0.0021 H         1 <0>         0.0607
     22 H3         -0.5445    1.7859   -0.8732 H         1 <0>         0.1076
     23 H4         -0.5275    1.7763    0.9067 H         1 <0>         0.0611
     24 H5          1.1488    1.2326    2.0028 H         1 <0>         0.1490
     25 H6          2.2855    0.1245    3.8896 H         1 <0>         0.1463
     26 H7          0.2170   -2.5670    0.2934 H         1 <0>         0.1339
     27 H8          2.4764   -7.7436    3.9209 H         1 <0>         0.4080
     28 H9         -0.0798   -6.7377    0.9180 H         1 <0>         0.1193
     29 H10        -0.2088   -6.2459    2.6151 H         1 <0>         0.0928
     30 H11         0.8756   -4.7236    0.4900 H         1 <0>         0.4090
     31 H12         2.2479   -7.4788    0.0808 H         1 <0>         0.1491
     32 H13         3.0293   -6.1473    0.9668 H         1 <0>         0.1372
     33 H14         4.4996   -8.0007    0.6674 H         1 <0>         0.4414
     34 H15         4.1823   -7.7787    2.2689 H         1 <0>         0.4349
     35 H16         3.4590   -9.0113    1.4488 H         1 <0>         0.4352
@<TRIPOS>BOND
     1    1    2 1
     2    1   21 1
     3    1   22 1
     4    1   23 1
     5    2    3 1
     6    3    8 ar
     7    3    4 ar
     8    4    5 ar
     9    4   24 1
    10    5    6 ar
    11    5   25 1
    12    6   11 1
    13    6    7 ar
    14    7    8 ar
    15    7    9 1
    16    8   26 1
    17    9   18 1
    18    9   10 2
    19   10   11 1
    20   10   12 1
    21   12   13 2
    22   12   14 am
    23   14   15 1
    24   14   27 1
    25   15   16 1
    26   15   17 1
    27   15   19 1
    28   17   18 1
    29   17   28 1
    30   17   29 1
    31   18   30 1
    32   19   20 1
    33   19   31 1
    34   19   32 1
    35   20   33 1
    36   20   34 1
    37   20   35 1
@<TRIPOS>MOLECULE
CHEMBL256194
   72    76     0     0     0
SMALL
USER_CHARGES

@<TRIPOS>ATOM
      1 C1          4.7504    7.9120    1.3249 C.3       1 <0>        -0.1690
      2 C2          4.2710    6.5969    0.7073 C.3       1 <0>         0.1197
      3 C3          2.7856    6.7046    0.3670 C.3       1 <0>         0.1045
      4 N1          1.9354    6.6939    1.5508 N.am      1 <0>        -0.7279
      5 C4          2.1978    5.8985    2.6150 C.2       1 <0>         0.5909
      6 O1          1.4213    5.7965    3.5455 O.2       1 <0>        -0.5034
      7 C5          3.4771    5.1615    2.5848 C.2       1 <0>         0.0182
      8 N2          4.4693    5.5046    1.6657 N.pl3     1 <0>        -0.4594
      9 C6          5.5296    4.6820    1.8529 C.ar      1 <0>         0.1147
     10 C7          6.7662    4.5941    1.2185 C.ar      1 <0>        -0.0480
     11 C8          7.6430    3.6059    1.6729 C.ar      1 <0>        -0.1131
     12 C9          7.3038    2.7384    2.7174 C.ar      1 <0>        -0.1296
     13 C10         6.0952    2.8093    3.3538 C.ar      1 <0>        -0.0488
     14 C11         5.1964    3.7951    2.9149 C.ar      1 <0>        -0.0967
     15 C12         3.9004    4.1303    3.3451 C.2       1 <0>        -0.1019
     16 C13         8.9669    3.4724    1.0316 C.2       1 <0>         0.5678
     17 O2          9.2798    4.2164    0.1224 O.2       1 <0>        -0.4962
     18 N3          9.8281    2.5258    1.4544 N.am      1 <0>        -0.6051
     19 C14        11.0721    2.4004    0.8519 C.2       1 <0>         0.2748
     20 N4         12.0397    1.5457    1.1148 N.2       1 <0>        -0.5067
     21 C15        13.1620    1.6167    0.3932 C.2       1 <0>        -0.0114
     22 C16        13.2613    2.5677   -0.5834 C.2       1 <0>        -0.2383
     23 S1         11.7743    3.3494   -0.4854 S.3       1 <0>         0.2859
     24 C17        14.2739    0.6859    0.6463 C.2       1 <0>         0.6040
     25 O3         15.2915    0.7595   -0.0161 O.2       1 <0>        -0.5273
     26 N5         14.1645   -0.2478    1.6120 N.am      1 <0>        -0.7162
     27 C18        15.2712   -1.1742    1.8640 C.3       1 <0>         0.1362
     28 C19        15.1646   -2.3699    0.9131 C.3       1 <0>        -0.1605
     29 C20        16.2763   -3.3710    1.2347 C.3       1 <0>        -0.0248
     30 N6         16.1379   -3.8326    2.6212 N.4       1 <0>        -0.3854
     31 C21        16.3105   -2.7026    3.5420 C.3       1 <0>        -0.0019
     32 C22        15.2002   -1.6758    3.3091 C.3       1 <0>        -0.1558
     33 C23        17.1593   -4.8507    2.9010 C.3       1 <0>        -0.0043
     34 C24        16.6441   -6.2235    2.4637 C.3       1 <0>        -0.0862
     35 C25        16.4582   -6.2384    0.9451 C.3       1 <0>        -0.1737
     36 C26        17.6558   -7.2991    2.8642 C.3       1 <0>        -0.1460
     37 C27        15.3033   -6.5056    3.1445 C.3       1 <0>        -0.1683
     38 H1          5.8092    7.8331    1.5713 H         1 <0>         0.0696
     39 H2          4.6027    8.7233    0.6121 H         1 <0>         0.0853
     40 H3          4.1807    8.1166    2.2314 H         1 <0>         0.0666
     41 H4          4.8392    6.3926   -0.2002 H         1 <0>         0.1189
     42 H5          2.6161    7.6322   -0.1797 H         1 <0>         0.1118
     43 H6          2.5093    5.8661   -0.2723 H         1 <0>         0.0783
     44 H7          1.1585    7.2740    1.5773 H         1 <0>         0.4128
     45 H8          7.0351    5.2596    0.4115 H         1 <0>         0.1476
     46 H9          8.0177    1.9910    3.0305 H         1 <0>         0.1230
     47 H10         5.8425    2.1354    4.1590 H         1 <0>         0.1454
     48 H11         3.3460    3.6509    4.1384 H         1 <0>         0.1638
     49 H12         9.5785    1.9322    2.1798 H         1 <0>         0.4277
     50 H13        14.0854    2.7649   -1.2529 H         1 <0>         0.2098
     51 H14        13.3531   -0.3065    2.1402 H         1 <0>         0.4151
     52 H15        16.2195   -0.6617    1.7022 H         1 <0>         0.1066
     53 H16        14.1944   -2.8503    1.0397 H         1 <0>         0.0893
     54 H17        15.2702   -2.0270   -0.1162 H         1 <0>         0.1177
     55 H18        16.2035   -4.2235    0.5594 H         1 <0>         0.1472
     56 H19        17.2460   -2.8897    1.1076 H         1 <0>         0.1325
     57 H20        16.2630   -3.0617    4.5700 H         1 <0>         0.1359
     58 H21        17.2795   -2.2356    3.3657 H         1 <0>         0.1334
     59 H22        15.3311   -0.8368    3.9925 H         1 <0>         0.1207
     60 H23        14.2307   -2.1418    3.4854 H         1 <0>         0.0941
     61 H24        18.0699   -4.6125    2.3514 H         1 <0>         0.1327
     62 H25        17.3734   -4.8665    3.9696 H         1 <0>         0.1326
     63 H26        17.3271   -5.7849    0.4682 H         1 <0>         0.0730
     64 H27        16.3514   -7.2675    0.6022 H         1 <0>         0.0849
     65 H28        15.5637   -5.6734    0.6830 H         1 <0>         0.0634
     66 H29        17.7882   -7.2885    3.9461 H         1 <0>         0.0684
     67 H30        17.2888   -8.2771    2.5527 H         1 <0>         0.0780
     68 H31        18.6110   -7.0981    2.3793 H         1 <0>         0.0691
     69 H32        14.5464   -5.8267    2.7516 H         1 <0>         0.0530
     70 H33        15.0053   -7.5353    2.9472 H         1 <0>         0.0890
     71 H34        15.4030   -6.3557    4.2195 H         1 <0>         0.0730
     72 H35        15.2214   -4.2340    2.7510 H         1 <0>         0.4190
@<TRIPOS>BOND
     1    1    2 1
     2    1   38 1
     3    1   39 1
     4    1   40 1
     5    2    8 1
     6    2    3 1
     7    2   41 1
     8    3    4 1
     9    3   42 1
    10    3   43 1
    11    4    5 am
    12    4   44 1
    13    5    6 2
    14    5    7 1
    15    7   15 2
    16    7    8 1
    17    8    9 1
    18    9   14 ar
    19    9   10 ar
    20   10   11 ar
    21   10   45 1
    22   11   12 ar
    23   11   16 1
    24   12   13 ar
    25   12   46 1
    26   13   14 ar
    27   13   47 1
    28   14   15 1
    29   15   48 1
    30   16   17 2
    31   16   18 am
    32   18   19 1
    33   18   49 1
    34   19   23 1
    35   19   20 2
    36   20   21 1
    37   21   22 2
    38   21   24 1
    39   22   23 1
    40   22   50 1
    41   24   25 2
    42   24   26 am
    43   26   27 1
    44   26   51 1
    45   27   32 1
    46   27   28 1
    47   27   52 1
    48   28   29 1
    49   28   53 1
    50   28   54 1
    51   29   30 1
    52   29   55 1
    53   29   56 1
    54   30   31 1
    55   30   33 1
    56   30   72 1
    57   31   32 1
    58   31   57 1
    59   31   58 1
    60   32   59 1
    61   32   60 1
    62   33   34 1
    63   33   61 1
    64   33   62 1
    65   34   35 1
    66   34   36 1
    67   34   37 1
    68   35   63 1
    69   35   64 1
    70   35   65 1
    71   36   66 1
    72   36   67 1
    73   36   68 1
    74   37   69 1
    75   37   70 1
    76   37   71 1
@<TRIPOS>MOLECULE
CHEMBL256194__1
   72    76     0     0     0
SMALL
USER_CHARGES

@<TRIPOS>ATOM
      1 C1         -4.3109   -5.5935   -0.6474 C.3       1 <0>        -0.1688
      2 C2         -3.8102   -6.9134   -0.0574 C.3       1 <0>         0.1196
      3 C3         -3.1611   -7.7506   -1.1581 C.3       1 <0>         0.1044
      4 N1         -1.8731   -7.2180   -1.5841 N.am      1 <0>        -0.7279
      5 C4         -0.9898   -6.6884   -0.7047 C.2       1 <0>         0.5909
      6 O1          0.1318   -6.3607   -1.0420 O.2       1 <0>        -0.5034
      7 C5         -1.4616   -6.5299    0.6855 C.2       1 <0>         0.0181
      8 N2         -2.8193   -6.6380    0.9882 N.pl3     1 <0>        -0.4594
      9 C6         -2.9775   -6.4497    2.3206 C.ar      1 <0>         0.1147
     10 C7         -4.1068   -6.4493    3.1356 C.ar      1 <0>        -0.0480
     11 C8         -3.9051   -6.2174    4.4984 C.ar      1 <0>        -0.1131
     12 C9         -2.6300   -5.9947    5.0307 C.ar      1 <0>        -0.1296
     13 C10        -1.5089   -5.9905    4.2472 C.ar      1 <0>        -0.0488
     14 C11        -1.6862   -6.2207    2.8733 C.ar      1 <0>        -0.0967
     15 C12        -0.7644   -6.2789    1.8132 C.2       1 <0>        -0.1019
     16 C13        -5.0718   -6.2066    5.4041 C.2       1 <0>         0.5678
     17 O2         -6.1875   -6.3977    4.9605 O.2       1 <0>        -0.4962
     18 N3         -4.8996   -5.9849    6.7223 N.am      1 <0>        -0.6050
     19 C14        -5.9959   -5.9747    7.5733 C.2       1 <0>         0.2748
     20 N4         -6.0350   -5.7734    8.8748 N.2       1 <0>        -0.5067
     21 C15        -7.2221   -5.8112    9.4870 C.2       1 <0>        -0.0114
     22 C16        -8.3423   -6.0559    8.7432 C.2       1 <0>        -0.2383
     23 S1         -7.7200   -6.2231    7.1887 S.3       1 <0>         0.2859
     24 C17        -7.3218   -5.5934   10.9393 C.2       1 <0>         0.6040
     25 O3         -8.4074   -5.6304   11.4869 O.2       1 <0>        -0.5274
     26 N5         -6.2102   -5.3529   11.6625 N.am      1 <0>        -0.7162
     27 C18        -6.3093   -5.1361   13.1080 C.3       1 <0>         0.1362
     28 C19        -6.6194   -3.6621   13.3846 C.3       1 <0>        -0.1605
     29 C20        -6.6429   -3.4265   14.8964 C.3       1 <0>        -0.0248
     30 N6         -5.3354   -3.7689   15.4690 N.4       1 <0>        -0.3854
     31 C21        -5.0633   -5.1975   15.2704 C.3       1 <0>        -0.0019
     32 C22        -4.9790   -5.5012   13.7730 C.3       1 <0>        -0.1558
     33 C23        -5.3381   -3.4677   16.9068 C.3       1 <0>        -0.0043
     34 C24        -4.9714   -1.9977   17.1206 C.3       1 <0>        -0.0862
     35 C25        -6.0585   -1.1076   16.5151 C.3       1 <0>        -0.1737
     36 C26        -4.8560   -1.7138   18.6196 C.3       1 <0>        -0.1460
     37 C27        -3.6329   -1.7020   16.4410 C.3       1 <0>        -0.1683
     38 H1         -3.4720   -5.0464   -1.0775 H         1 <0>         0.0666
     39 H2         -5.0473   -5.7990   -1.4244 H         1 <0>         0.0853
     40 H3         -4.7701   -4.9949    0.1392 H         1 <0>         0.0695
     41 H4         -4.6490   -7.4619    0.3714 H         1 <0>         0.1190
     42 H5         -3.0174   -8.7662   -0.7893 H         1 <0>         0.0784
     43 H6         -3.8307   -7.7820   -2.0176 H         1 <0>         0.1118
     44 H7         -1.6418   -7.2433   -2.5258 H         1 <0>         0.4129
     45 H8         -5.0940   -6.6201    2.7322 H         1 <0>         0.1475
     46 H9         -2.5283   -5.8206    6.0917 H         1 <0>         0.1230
     47 H10        -0.5291   -5.8176    4.6673 H         1 <0>         0.1454
     48 H11         0.3050   -6.1476    1.8880 H         1 <0>         0.1638
     49 H12        -4.0095   -5.8324    7.0763 H         1 <0>         0.4277
     50 H13        -9.3695   -6.1210    9.0703 H         1 <0>         0.2098
     51 H14        -5.3445   -5.3233   11.2259 H         1 <0>         0.4151
     52 H15        -7.1044   -5.7599   13.5164 H         1 <0>         0.1066
     53 H16        -5.8504   -3.0370   12.9307 H         1 <0>         0.0893
     54 H17        -7.5916   -3.4091   12.9617 H         1 <0>         0.1177
     55 H18        -6.8636   -2.3781   15.0969 H         1 <0>         0.1472
     56 H19        -7.4123   -4.0519   15.3492 H         1 <0>         0.1325
     57 H20        -4.1179   -5.4565   15.7470 H         1 <0>         0.1359
     58 H21        -5.8664   -5.7851   15.7152 H         1 <0>         0.1334
     59 H22        -4.7788   -6.5628   13.6276 H         1 <0>         0.1207
     60 H23        -4.1760   -4.9143   13.3272 H         1 <0>         0.0941
     61 H24        -6.3304   -3.6578   17.3159 H         1 <0>         0.1327
     62 H25        -4.6092   -4.1012   17.4121 H         1 <0>         0.1326
     63 H26        -7.0397   -1.4898   16.7966 H         1 <0>         0.0730
     64 H27        -5.9443   -0.0898   16.8882 H         1 <0>         0.0850
     65 H28        -5.9660   -1.1089   15.4290 H         1 <0>         0.0634
     66 H29        -4.0815   -2.3479   19.0510 H         1 <0>         0.0684
     67 H30        -4.5947   -0.6666   18.7719 H         1 <0>         0.0779
     68 H31        -5.8096   -1.9245   19.1037 H         1 <0>         0.0690
     69 H32        -3.7524   -1.7668   15.3595 H         1 <0>         0.0530
     70 H33        -3.3023   -0.6989   16.7106 H         1 <0>         0.0890
     71 H34        -2.8904   -2.4296   16.7687 H         1 <0>         0.0730
     72 H35        -4.6175   -3.2245   15.0147 H         1 <0>         0.4191
@<TRIPOS>BOND
     1    1    2 1
     2    1   38 1
     3    1   39 1
     4    1   40 1
     5    2    8 1
     6    2    3 1
     7    2   41 1
     8    3    4 1
     9    3   42 1
    10    3   43 1
    11    4    5 am
    12    4   44 1
    13    5    6 2
    14    5    7 1
    15    7   15 2
    16    7    8 1
    17    8    9 1
    18    9   14 ar
    19    9   10 ar
    20   10   11 ar
    21   10   45 1
    22   11   12 ar
    23   11   16 1
    24   12   13 ar
    25   12   46 1
    26   13   14 ar
    27   13   47 1
    28   14   15 1
    29   15   48 1
    30   16   17 2
    31   16   18 am
    32   18   19 1
    33   18   49 1
    34   19   23 1
    35   19   20 2
    36   20   21 1
    37   21   22 2
    38   21   24 1
    39   22   23 1
    40   22   50 1
    41   24   25 2
    42   24   26 am
    43   26   27 1
    44   26   51 1
    45   27   32 1
    46   27   28 1
    47   27   52 1
    48   28   29 1
    49   28   53 1
    50   28   54 1
    51   29   30 1
    52   29   55 1
    53   29   56 1
    54   30   31 1
    55   30   33 1
    56   30   72 1
    57   31   32 1
    58   31   57 1
    59   31   58 1
    60   32   59 1
    61   32   60 1
    62   33   34 1
    63   33   61 1
    64   33   62 1
    65   34   35 1
    66   34   36 1
    67   34   37 1
    68   35   63 1
    69   35   64 1
    70   35   65 1
    71   36   66 1
    72   36   67 1
    73   36   68 1
    74   37   69 1
    75   37   70 1
    76   37   71 1
@<TRIPOS>MOLECULE
CHEMBL178413
   44    47     0     0     0
SMALL
USER_CHARGES

@<TRIPOS>ATOM
      1 C1         -0.0167    1.3811    0.0096 C.ar      1 <0>        -0.1051
      2 C2          1.1698    2.0955    0.0021 C.ar      1 <0>        -0.1485
      3 C3          2.3794    1.4243   -0.0080 C.ar      1 <0>         0.1337
      4 C4          2.3966    0.0328   -0.0182 C.ar      1 <0>        -0.1027
      5 C5          1.2144   -0.6780   -0.0136 C.ar      1 <0>        -0.0750
      6 C6          0.0021   -0.0041    0.0020 C.ar      1 <0>         0.0855
      7 O1         -1.1653   -0.7015    0.0089 O.3       1 <0>        -0.4925
      8 C7          1.2400   -2.1848   -0.0250 C.3       1 <0>         0.1056
      9 C8          1.1431   -2.7091    1.4106 C.3       1 <0>         0.0387
     10 O2          1.2803   -4.1333    1.4004 O.3       1 <0>        -0.3753
     11 C9          2.5056   -4.5863    0.8169 C.3       1 <0>         0.0196
     12 C10         2.6024   -4.0620   -0.6187 C.3       1 <0>         0.0262
     13 O3          2.4653   -2.6378   -0.6085 O.3       1 <0>        -0.3727
     14 O4          3.5646    2.0861    0.0027 O.3       1 <0>        -0.2986
     15 C11         3.5763    3.4689   -0.3631 C.3       1 <0>         0.1099
     16 C12         4.9229    4.0689    0.0791 C.3       1 <0>        -0.1312
     17 C13         5.0930    3.7470    1.5495 C.2       1 <0>         0.2776
     18 C14         3.9180    3.8853    2.4269 C.2       1 <0>        -0.1852
     19 C15         2.6724    4.0838    1.8814 C.2       1 <0>         0.2955
     20 C16         2.4604    4.1844    0.4022 C.3       1 <0>        -0.1018
     21 C17         1.1100    3.6012   -0.0004 C.3       1 <0>        -0.0730
     22 N1          1.5999    4.1926    2.7097 N.pl3     1 <0>        -0.8271
     23 C18         4.0735    3.8124    3.8486 C.1       1 <0>         0.2776
     24 N2          4.1969    3.7546    4.9764 N.1       1 <0>        -0.4470
     25 N3          6.2384    3.3610    2.0214 N.2       1 <0>        -0.6908
     26 H1         -0.9604    1.9061    0.0260 H         1 <0>         0.1355
     27 H2          3.3398   -0.4930   -0.0302 H         1 <0>         0.1431
     28 H3         -1.5110   -0.8985   -0.8725 H         1 <0>         0.3892
     29 H4          0.3985   -2.5590   -0.6080 H         1 <0>         0.0816
     30 H5          1.9388   -2.2708    2.0130 H         1 <0>         0.0627
     31 H6          0.1749   -2.4394    1.8324 H         1 <0>         0.1110
     32 H7          3.3471   -4.2111    1.3993 H         1 <0>         0.0631
     33 H8          2.5241   -5.6761    0.8087 H         1 <0>         0.1075
     34 H9          3.5707   -4.3316   -1.0405 H         1 <0>         0.1089
     35 H10         1.8068   -4.5003   -1.2211 H         1 <0>         0.0631
     36 H11         3.4342    3.5806   -1.4380 H         1 <0>         0.1032
     37 H12         5.7348    3.6227   -0.4952 H         1 <0>         0.0973
     38 H13         2.4651    5.2374    0.1203 H         1 <0>         0.1293
     39 H14         0.8495    3.9503   -0.9996 H         1 <0>         0.1005
     40 H15         0.3486    3.9333    0.7052 H         1 <0>         0.0874
     41 H16         1.7205    4.1299    3.6702 H         1 <0>         0.4092
     42 H17         0.7140    4.3329    2.3404 H         1 <0>         0.4070
     43 H18         7.0024    3.2747    1.4300 H         1 <0>         0.3406
     44 H19         4.9138    5.1491   -0.0661 H         1 <0>         0.1161
@<TRIPOS>BOND
     1    1    6 ar
     2    1    2 ar
     3    1   26 1
     4    2   21 1
     5    2    3 ar
     6    3    4 ar
     7    3   14 1
     8    4    5 ar
     9    4   27 1
    10    5    6 ar
    11    5    8 1
    12    6    7 1
    13    7   28 1
    14    8   13 1
    15    8    9 1
    16    8   29 1
    17    9   10 1
    18    9   30 1
    19    9   31 1
    20   10   11 1
    21   11   12 1
    22   11   32 1
    23   11   33 1
    24   12   13 1
    25   12   34 1
    26   12   35 1
    27   14   15 1
    28   15   20 1
    29   15   16 1
    30   15   36 1
    31   16   17 1
    32   16   37 1
    33   16   44 1
    34   17   18 1
    35   17   25 2
    36   18   19 2
    37   18   23 1
    38   19   20 1
    39   19   22 1
    40   20   21 1
    41   20   38 1
    42   21   39 1
    43   21   40 1
    44   22   41 1
    45   22   42 1
    46   23   24 3
    47   25   43 1
@<TRIPOS>MOLECULE
CHEMBL178413__1
   44    47     0     0     0
SMALL
USER_CHARGES

@<TRIPOS>ATOM
      1 C1          0.0683    1.2196    0.1427 C.ar      1 <0>        -0.1045
      2 C2          1.2317    1.9698    0.0996 C.ar      1 <0>        -0.1545
      3 C3          2.4621    1.3379    0.1146 C.ar      1 <0>         0.1394
      4 C4          2.5232   -0.0517    0.1611 C.ar      1 <0>        -0.1113
      5 C5          1.3645   -0.7987    0.2018 C.ar      1 <0>        -0.0756
      6 C6          0.1311   -0.1635    0.1952 C.ar      1 <0>         0.0758
      7 O1         -1.0134   -0.8966    0.2396 O.3       1 <0>        -0.4938
      8 C7          1.4381   -2.3030    0.2530 C.3       1 <0>         0.1063
      9 C8          1.3641   -2.7698    1.7096 C.3       1 <0>         0.0393
     10 O2          1.5467   -4.1880    1.7579 O.3       1 <0>        -0.3762
     11 C9          2.7833   -4.6259    1.1869 C.3       1 <0>         0.0201
     12 C10         2.8574   -4.1591   -0.2697 C.3       1 <0>         0.0258
     13 O3          2.6748   -2.7409   -0.3180 O.3       1 <0>        -0.3717
     14 O4          3.6250    2.0364    0.0998 O.3       1 <0>        -0.3076
     15 C11         3.6030    3.4057   -0.3129 C.3       1 <0>         0.1907
     16 C12         4.8989    4.0469    0.1672 C.2       1 <0>        -0.4559
     17 C13         5.1093    4.0063    1.6291 C.2       1 <0>         0.3383
     18 C14         3.8913    4.1330    2.4707 C.2       1 <0>        -0.2303
     19 C15         2.6538    4.1660    1.8791 C.2       1 <0>         0.3315
     20 C16         2.4525    4.1174    0.4006 C.3       1 <0>        -0.1067
     21 C17         1.1252    3.4710    0.0292 C.3       1 <0>        -0.0722
     22 N1          1.5565    4.2471    2.6790 N.pl3     1 <0>        -0.8285
     23 C18         4.0087    4.2199    3.8952 C.1       1 <0>         0.2557
     24 N2          4.1018    4.2888    5.0253 N.1       1 <0>        -0.4426
     25 N3          6.3019    3.8661    2.1535 N.pl3     1 <0>        -0.7981
     26 H1         -0.8914    1.7148    0.1399 H         1 <0>         0.1321
     27 H2          3.4826   -0.5476    0.1651 H         1 <0>         0.1409
     28 H3         -1.3568   -1.1427   -0.6302 H         1 <0>         0.3870
     29 H4          0.6066   -2.7277   -0.3094 H         1 <0>         0.0803
     30 H5          2.1479   -2.2817    2.2889 H         1 <0>         0.0618
     31 H6          0.3895   -2.5136    2.1252 H         1 <0>         0.1105
     32 H7          3.6148   -4.2002    1.7486 H         1 <0>         0.0623
     33 H8          2.8366   -5.7140    1.2239 H         1 <0>         0.1068
     34 H9          3.8319   -4.4153   -0.6853 H         1 <0>         0.1085
     35 H10         2.0736   -4.6472   -0.8490 H         1 <0>         0.0626
     36 H11         3.4959    3.4832   -1.3949 H         1 <0>         0.0914
     37 H12         5.6101    4.4967   -0.5098 H         1 <0>         0.1324
     38 H13         2.4200    5.1439    0.0355 H         1 <0>         0.1263
     39 H14         0.8529    3.7652   -0.9843 H         1 <0>         0.0976
     40 H15         0.3541    3.8098    0.7211 H         1 <0>         0.0798
     41 H16         1.6500    4.1621    3.6407 H         1 <0>         0.4066
     42 H17         0.6805    4.3900    2.2876 H         1 <0>         0.4087
     43 H18         7.0785    3.7854    1.5778 H         1 <0>         0.4135
     44 H19         6.4082    3.8429    3.1174 H         1 <0>         0.3974
@<TRIPOS>BOND
     1    1    6 ar
     2    1    2 ar
     3    1   26 1
     4    2   21 1
     5    2    3 ar
     6    3    4 ar
     7    3   14 1
     8    4    5 ar
     9    4   27 1
    10    5    6 ar
    11    5    8 1
    12    6    7 1
    13    7   28 1
    14    8   13 1
    15    8    9 1
    16    8   29 1
    17    9   10 1
    18    9   30 1
    19    9   31 1
    20   10   11 1
    21   11   12 1
    22   11   32 1
    23   11   33 1
    24   12   13 1
    25   12   34 1
    26   12   35 1
    27   14   15 1
    28   15   20 1
    29   15   16 1
    30   15   36 1
    31   16   17 1
    32   16   37 1
    33   17   18 1
    34   17   25 2
    35   18   19 2
    36   18   23 1
    37   19   20 1
    38   19   22 1
    39   20   21 1
    40   20   38 1
    41   21   39 1
    42   21   40 1
    43   22   41 1
    44   22   42 1
    45   23   24 3
    46   25   43 1
    47   25   44 1
@<TRIPOS>MOLECULE
CHEMBL178413__2
   44    47     0     0     0
SMALL
USER_CHARGES

@<TRIPOS>ATOM
      1 C1         -0.0167    1.3811    0.0096 C.ar      1 <0>        -0.1051
      2 C2          1.1697    2.0955    0.0021 C.ar      1 <0>        -0.1408
      3 C3          2.3792    1.4236   -0.0122 C.ar      1 <0>         0.1256
      4 C4          2.3966    0.0325   -0.0215 C.ar      1 <0>        -0.1000
      5 C5          1.2143   -0.6783   -0.0147 C.ar      1 <0>        -0.0758
      6 C6          0.0021   -0.0041    0.0020 C.ar      1 <0>         0.0886
      7 O1         -1.1653   -0.7014    0.0101 O.3       1 <0>        -0.4924
      8 C7          1.2397   -2.1850   -0.0255 C.3       1 <0>         0.1049
      9 C8          1.1450   -2.7088    1.4104 C.3       1 <0>         0.0390
     10 O2          1.2820   -4.1330    1.4005 O.3       1 <0>        -0.3755
     11 C9          2.5063   -4.5864    0.8152 C.3       1 <0>         0.0200
     12 C10         2.6010   -4.0626   -0.6207 C.3       1 <0>         0.0259
     13 O3          2.4640   -2.6384   -0.6108 O.3       1 <0>        -0.3724
     14 O4          3.5683    2.0850   -0.0136 O.3       1 <0>        -0.2966
     15 C11         3.5528    3.4667   -0.3772 C.3       1 <0>         0.1096
     16 C12         4.9104    4.1013   -0.0574 C.3       1 <0>        -0.0672
     17 C13         4.8515    5.5501   -0.4961 C.2       1 <0>         0.2732
     18 C14         3.6231    6.3066   -0.1980 C.2       1 <0>        -0.2614
     19 C15         2.4998    5.6487    0.2373 C.2       1 <0>         0.3147
     20 C16         2.4634    4.1649    0.4418 C.3       1 <0>        -0.1028
     21 C17         1.1067    3.6030    0.0085 C.3       1 <0>        -0.0755
     22 N1          1.3767    6.3713    0.4923 N.pl3     1 <0>        -0.8260
     23 C18         3.6010    7.7290   -0.3619 C.1       1 <0>         0.2559
     24 N2          3.5834    8.8574   -0.4920 N.1       1 <0>        -0.4351
     25 N3          5.8488    6.1057   -1.1128 N.2       1 <0>        -0.6820
     26 H1         -0.9604    1.9061    0.0260 H         1 <0>         0.1365
     27 H2          3.3398   -0.4933   -0.0344 H         1 <0>         0.1462
     28 H3         -1.5119   -0.8983   -0.8709 H         1 <0>         0.3903
     29 H4          0.3972   -2.5593   -0.6072 H         1 <0>         0.0818
     30 H5          1.9417   -2.2704    2.0114 H         1 <0>         0.0633
     31 H6          0.1775   -2.4388    1.8336 H         1 <0>         0.1112
     32 H7          3.3487   -4.2111    1.3962 H         1 <0>         0.0634
     33 H8          2.5246   -5.6762    0.8074 H         1 <0>         0.1073
     34 H9          3.5685   -4.3326   -1.0439 H         1 <0>         0.1094
     35 H10         1.8043   -4.5010   -1.2217 H         1 <0>         0.0630
     36 H11         3.3317    3.5639   -1.4401 H         1 <0>         0.0917
     37 H12         5.1012    4.0467    1.0144 H         1 <0>         0.1067
     38 H13         2.6109    3.9440    1.4990 H         1 <0>         0.1272
     39 H14         0.8674    3.9612   -0.9928 H         1 <0>         0.0923
     40 H15         0.3370    3.9319    0.7066 H         1 <0>         0.0915
     41 H16         1.3797    7.3330    0.3658 H         1 <0>         0.4097
     42 H17         0.5725    5.9252    0.8006 H         1 <0>         0.4097
     43 H18         5.7932    7.0347   -1.3862 H         1 <0>         0.3386
     44 H19         5.6992    3.5817   -0.6014 H         1 <0>         0.1112
@<TRIPOS>BOND
     1    1    6 ar
     2    1    2 ar
     3    1   26 1
     4    2   21 1
     5    2    3 ar
     6    3    4 ar
     7    3   14 1
     8    4    5 ar
     9    4   27 1
    10    5    6 ar
    11    5    8 1
    12    6    7 1
    13    7   28 1
    14    8   13 1
    15    8    9 1
    16    8   29 1
    17    9   10 1
    18    9   30 1
    19    9   31 1
    20   10   11 1
    21   11   12 1
    22   11   32 1
    23   11   33 1
    24   12   13 1
    25   12   34 1
    26   12   35 1
    27   14   15 1
    28   15   20 1
    29   15   16 1
    30   15   36 1
    31   16   17 1
    32   16   37 1
    33   16   44 1
    34   17   18 1
    35   17   25 2
    36   18   19 2
    37   18   23 1
    38   19   20 1
    39   19   22 1
    40   20   21 1
    41   20   38 1
    42   21   39 1
    43   21   40 1
    44   22   41 1
    45   22   42 1
    46   23   24 3
    47   25   43 1
@<TRIPOS>MOLECULE
CHEMBL178413__3
   44    47     0     0     0
SMALL
USER_CHARGES

@<TRIPOS>ATOM
      1 C1         -0.0167    1.3811    0.0096 C.ar      1 <0>        -0.1050
      2 C2          1.1697    2.0954    0.0021 C.ar      1 <0>        -0.1430
      3 C3          2.3792    1.4235   -0.0129 C.ar      1 <0>         0.1297
      4 C4          2.3966    0.0324   -0.0199 C.ar      1 <0>        -0.1044
      5 C5          1.2143   -0.6783   -0.0126 C.ar      1 <0>        -0.0765
      6 C6          0.0021   -0.0041    0.0020 C.ar      1 <0>         0.0828
      7 O1         -1.1653   -0.7014    0.0097 O.3       1 <0>        -0.4929
      8 C7          1.2396   -2.1851   -0.0208 C.3       1 <0>         0.1058
      9 C8          1.1443   -2.7065    1.4159 C.3       1 <0>         0.0389
     10 O2          1.2812   -4.1306    1.4085 O.3       1 <0>        -0.3761
     11 C9          2.5058   -4.5851    0.8245 C.3       1 <0>         0.0201
     12 C10         2.6011   -4.0637   -0.6122 C.3       1 <0>         0.0258
     13 O3          2.4642   -2.6395   -0.6048 O.3       1 <0>        -0.3720
     14 O4          3.5714    2.0835   -0.0217 O.3       1 <0>        -0.2943
     15 C11         3.5428    3.4599   -0.3983 C.3       1 <0>         0.1944
     16 C12         4.8736    4.1177   -0.1023 C.2       1 <0>        -0.4247
     17 C13         4.9179    5.5771   -0.3358 C.2       1 <0>         0.3024
     18 C14         3.6636    6.3216   -0.0539 C.2       1 <0>        -0.2246
     19 C15         2.5231    5.6418    0.2886 C.2       1 <0>         0.3236
     20 C16         2.4647    4.1570    0.4380 C.3       1 <0>        -0.1090
     21 C17         1.1044    3.6044    0.0113 C.3       1 <0>        -0.0750
     22 N1          1.3858    6.3569    0.5030 N.pl3     1 <0>        -0.8294
     23 C18         3.6458    7.7510   -0.1395 C.1       1 <0>         0.2555
     24 N2          3.6317    8.8849   -0.2074 N.1       1 <0>        -0.4400
     25 N3          5.9999    6.1784   -0.7657 N.pl3     1 <0>        -0.8038
     26 H1         -0.9604    1.9061    0.0260 H         1 <0>         0.1347
     27 H2          3.3399   -0.4934   -0.0316 H         1 <0>         0.1443
     28 H3         -1.5117   -0.8983   -0.8714 H         1 <0>         0.3884
     29 H4          0.3975   -2.5604   -0.6023 H         1 <0>         0.0810
     30 H5          1.9407   -2.2671    2.0165 H         1 <0>         0.0632
     31 H6          0.1765   -2.4358    1.8382 H         1 <0>         0.1111
     32 H7          3.3480   -4.2089    1.4053 H         1 <0>         0.0631
     33 H8          2.5241   -5.6749    0.8185 H         1 <0>         0.1068
     34 H9          3.5689   -4.3344   -1.0345 H         1 <0>         0.1087
     35 H10         1.8047   -4.5031   -1.2129 H         1 <0>         0.0626
     36 H11         3.3006    3.5467   -1.4575 H         1 <0>         0.0693
     37 H12         5.7282    3.5617    0.2538 H         1 <0>         0.1341
     38 H13         2.6172    3.9041    1.4872 H         1 <0>         0.1207
     39 H14         0.8613    3.9653   -0.9882 H         1 <0>         0.0891
     40 H15         0.3398    3.9324    0.7155 H         1 <0>         0.0864
     41 H16         1.3958    7.3226    0.4124 H         1 <0>         0.4071
     42 H17         0.5650    5.9010    0.7465 H         1 <0>         0.4101
     43 H18         6.8036    5.6641   -0.9405 H         1 <0>         0.4127
     44 H19         5.9972    7.1377   -0.9092 H         1 <0>         0.3984
@<TRIPOS>BOND
     1    1    6 ar
     2    1    2 ar
     3    1   26 1
     4    2   21 1
     5    2    3 ar
     6    3    4 ar
     7    3   14 1
     8    4    5 ar
     9    4   27 1
    10    5    6 ar
    11    5    8 1
    12    6    7 1
    13    7   28 1
    14    8   13 1
    15    8    9 1
    16    8   29 1
    17    9   10 1
    18    9   30 1
    19    9   31 1
    20   10   11 1
    21   11   12 1
    22   11   32 1
    23   11   33 1
    24   12   13 1
    25   12   34 1
    26   12   35 1
    27   14   15 1
    28   15   20 1
    29   15   16 1
    30   15   36 1
    31   16   17 1
    32   16   37 1
    33   17   18 1
    34   17   25 2
    35   18   19 2
    36   18   23 1
    37   19   20 1
    38   19   22 1
    39   20   21 1
    40   20   38 1
    41   21   39 1
    42   21   40 1
    43   22   41 1
    44   22   42 1
    45   23   24 3
    46   25   43 1
    47   25   44 1
@<TRIPOS>MOLECULE
CHEMBL178413__4
   44    47     0     0     0
SMALL
USER_CHARGES

@<TRIPOS>ATOM
      1 C1         -0.0167    1.3811    0.0096 C.ar      1 <0>        -0.1052
      2 C2          1.1697    2.0955    0.0021 C.ar      1 <0>        -0.1408
      3 C3          2.3792    1.4236   -0.0138 C.ar      1 <0>         0.1256
      4 C4          2.3966    0.0325   -0.0196 C.ar      1 <0>        -0.1000
      5 C5          1.2143   -0.6783   -0.0124 C.ar      1 <0>        -0.0758
      6 C6          0.0021   -0.0041    0.0020 C.ar      1 <0>         0.0887
      7 O1         -1.1653   -0.7014    0.0092 O.3       1 <0>        -0.4924
      8 C7          1.2397   -2.1850   -0.0207 C.3       1 <0>         0.1050
      9 C8          1.1443   -2.7065    1.4160 C.3       1 <0>         0.0388
     10 O2          1.2813   -4.1306    1.4086 O.3       1 <0>        -0.3755
     11 C9          2.5059   -4.5850    0.8247 C.3       1 <0>         0.0198
     12 C10         2.6014   -4.0636   -0.6120 C.3       1 <0>         0.0260
     13 O3          2.4643   -2.6394   -0.6045 O.3       1 <0>        -0.3725
     14 O4          3.5682    2.0851   -0.0280 O.3       1 <0>        -0.2966
     15 C11         3.5597    3.4628    0.3506 C.3       1 <0>         0.1094
     16 C12         4.9111    4.1010    0.0118 C.3       1 <0>        -0.0671
     17 C13         4.8607    5.5450    0.4670 C.2       1 <0>         0.2732
     18 C14         3.6269    6.3045    0.2004 C.2       1 <0>        -0.2612
     19 C15         2.4952    5.6510   -0.2195 C.2       1 <0>         0.3145
     20 C16         2.4550    4.1696   -0.4400 C.3       1 <0>        -0.1024
     21 C17         1.1068    3.6029    0.0131 C.3       1 <0>        -0.0757
     22 N1          1.3673    6.3761   -0.4444 N.pl3     1 <0>        -0.8260
     23 C18         3.6080    7.7251    0.3799 C.1       1 <0>         0.2558
     24 N2          3.5931    8.8520    0.5223 N.1       1 <0>        -0.4350
     25 N3          5.8696    6.0940    1.0704 N.2       1 <0>        -0.6820
     26 H1         -0.9604    1.9061    0.0260 H         1 <0>         0.1365
     27 H2          3.3399   -0.4933   -0.0303 H         1 <0>         0.1463
     28 H3         -1.5113   -0.8983   -0.8721 H         1 <0>         0.3903
     29 H4          0.3976   -2.5603   -0.6022 H         1 <0>         0.0819
     30 H5          1.9406   -2.2670    2.0167 H         1 <0>         0.0633
     31 H6          0.1765   -2.4358    1.8383 H         1 <0>         0.1112
     32 H7          3.3480   -4.2088    1.4055 H         1 <0>         0.0634
     33 H8          2.5242   -5.6749    0.8187 H         1 <0>         0.1074
     34 H9          3.5691   -4.3342   -1.0342 H         1 <0>         0.1094
     35 H10         1.8050   -4.5030   -1.2127 H         1 <0>         0.0630
     36 H11         3.3590    3.5486    1.4185 H         1 <0>         0.0917
     37 H12         5.7100    3.5756    0.5351 H         1 <0>         0.1111
     38 H13         2.5823    3.9601   -1.5021 H         1 <0>         0.1272
     39 H14         0.3239    3.9393   -0.6667 H         1 <0>         0.0914
     40 H15         0.8866    3.9505    1.0225 H         1 <0>         0.0925
     41 H16         1.3728    7.3364   -0.3078 H         1 <0>         0.4097
     42 H17         0.5571    5.9331   -0.7416 H         1 <0>         0.4095
     43 H18         5.8193    7.0200    1.3548 H         1 <0>         0.3387
     44 H19         5.0814    4.0578   -1.0640 H         1 <0>         0.1068
@<TRIPOS>BOND
     1    1    6 ar
     2    1    2 ar
     3    1   26 1
     4    2   21 1
     5    2    3 ar
     6    3    4 ar
     7    3   14 1
     8    4    5 ar
     9    4   27 1
    10    5    6 ar
    11    5    8 1
    12    6    7 1
    13    7   28 1
    14    8   13 1
    15    8    9 1
    16    8   29 1
    17    9   10 1
    18    9   30 1
    19    9   31 1
    20   10   11 1
    21   11   12 1
    22   11   32 1
    23   11   33 1
    24   12   13 1
    25   12   34 1
    26   12   35 1
    27   14   15 1
    28   15   20 1
    29   15   16 1
    30   15   36 1
    31   16   17 1
    32   16   37 1
    33   16   44 1
    34   17   18 1
    35   17   25 2
    36   18   19 2
    37   18   23 1
    38   19   20 1
    39   19   22 1
    40   20   21 1
    41   20   38 1
    42   21   39 1
    43   21   40 1
    44   22   41 1
    45   22   42 1
    46   23   24 3
    47   25   43 1
@<TRIPOS>MOLECULE
CHEMBL178413__5
   44    47     0     0     0
SMALL
USER_CHARGES

@<TRIPOS>ATOM
      1 C1         -0.0167    1.3811    0.0096 C.ar      1 <0>        -0.1050
      2 C2          1.1697    2.0954    0.0021 C.ar      1 <0>        -0.1430
      3 C3          2.3792    1.4235   -0.0130 C.ar      1 <0>         0.1298
      4 C4          2.3966    0.0324   -0.0212 C.ar      1 <0>        -0.1044
      5 C5          1.2143   -0.6783   -0.0145 C.ar      1 <0>        -0.0766
      6 C6          0.0021   -0.0041    0.0020 C.ar      1 <0>         0.0828
      7 O1         -1.1653   -0.7014    0.0090 O.3       1 <0>        -0.4931
      8 C7          1.2396   -2.1851   -0.0238 C.3       1 <0>         0.1058
      9 C8          1.1439   -2.7074    1.4126 C.3       1 <0>         0.0389
     10 O2          1.2808   -4.1316    1.4043 O.3       1 <0>        -0.3761
     11 C9          2.5055   -4.5857    0.8203 C.3       1 <0>         0.0201
     12 C10         2.6012   -4.0633   -0.6161 C.3       1 <0>         0.0258
     13 O3          2.4643   -2.6392   -0.6077 O.3       1 <0>        -0.3720
     14 O4          3.5714    2.0835   -0.0199 O.3       1 <0>        -0.2943
     15 C11         3.5501    3.4558    0.3718 C.3       1 <0>         0.1942
     16 C12         4.8751    4.1168    0.0576 C.2       1 <0>        -0.4248
     17 C13         4.9240    5.5737    0.3058 C.2       1 <0>         0.3024
     18 C14         3.6647    6.3211    0.0558 C.2       1 <0>        -0.2246
     19 C15         2.5175    5.6448   -0.2713 C.2       1 <0>         0.3235
     20 C16         2.4563    4.1617   -0.4363 C.3       1 <0>        -0.1087
     21 C17         1.1043    3.6044    0.0104 C.3       1 <0>        -0.0752
     22 N1          1.3763    6.3619   -0.4555 N.pl3     1 <0>        -0.8294
     23 C18         3.6486    7.7494    0.1569 C.1       1 <0>         0.2555
     24 N2          3.6359    8.8825    0.2372 N.1       1 <0>        -0.4399
     25 N3          6.0138    6.1703    0.7222 N.pl3     1 <0>        -0.8037
     26 H1         -0.9604    1.9061    0.0260 H         1 <0>         0.1348
     27 H2          3.3399   -0.4934   -0.0331 H         1 <0>         0.1443
     28 H3         -1.5111   -0.8983   -0.8723 H         1 <0>         0.3885
     29 H4          0.3976   -2.5600   -0.6056 H         1 <0>         0.0810
     30 H5          1.9402   -2.2684    2.0137 H         1 <0>         0.0633
     31 H6          0.1761   -2.4370    1.8348 H         1 <0>         0.1111
     32 H7          3.3476   -4.2098    1.4015 H         1 <0>         0.0631
     33 H8          2.5238   -5.6755    0.8136 H         1 <0>         0.1068
     34 H9          3.5691   -4.3337   -1.0383 H         1 <0>         0.1087
     35 H10         1.8050   -4.5023   -1.2172 H         1 <0>         0.0625
     36 H11         3.3282    3.5313    1.4363 H         1 <0>         0.0694
     37 H12         5.7230    3.5646   -0.3200 H         1 <0>         0.1342
     38 H13         2.5888    3.9200   -1.4909 H         1 <0>         0.1207
     39 H14         0.3265    3.9399   -0.6756 H         1 <0>         0.0862
     40 H15         0.8804    3.9546    1.0180 H         1 <0>         0.0892
     41 H16         1.3881    7.3266   -0.3548 H         1 <0>         0.4072
     42 H17         0.5507    5.9085   -0.6875 H         1 <0>         0.4100
     43 H18         6.8205    5.6542    0.8767 H         1 <0>         0.4127
     44 H19         6.0139    7.1280    0.8759 H         1 <0>         0.3984
@<TRIPOS>BOND
     1    1    6 ar
     2    1    2 ar
     3    1   26 1
     4    2   21 1
     5    2    3 ar
     6    3    4 ar
     7    3   14 1
     8    4    5 ar
     9    4   27 1
    10    5    6 ar
    11    5    8 1
    12    6    7 1
    13    7   28 1
    14    8   13 1
    15    8    9 1
    16    8   29 1
    17    9   10 1
    18    9   30 1
    19    9   31 1
    20   10   11 1
    21   11   12 1
    22   11   32 1
    23   11   33 1
    24   12   13 1
    25   12   34 1
    26   12   35 1
    27   14   15 1
    28   15   20 1
    29   15   16 1
    30   15   36 1
    31   16   17 1
    32   16   37 1
    33   17   18 1
    34   17   25 2
    35   18   19 2
    36   18   23 1
    37   19   20 1
    38   19   22 1
    39   20   21 1
    40   20   38 1
    41   21   39 1
    42   21   40 1
    43   22   41 1
    44   22   42 1
    45   23   24 3
    46   25   43 1
    47   25   44 1
@<TRIPOS>MOLECULE
CHEMBL178413__6
   44    47     0     0     0
SMALL
USER_CHARGES

@<TRIPOS>ATOM
      1 C1         -0.0167    1.3809    0.0096 C.ar      1 <0>        -0.1048
      2 C2          1.1701    2.0960    0.0021 C.ar      1 <0>        -0.1392
      3 C3          2.3782    1.4225   -0.0073 C.ar      1 <0>         0.1230
      4 C4          2.3962    0.0316   -0.0190 C.ar      1 <0>        -0.0999
      5 C5          1.2138   -0.6792   -0.0136 C.ar      1 <0>        -0.0762
      6 C6          0.0021   -0.0041    0.0020 C.ar      1 <0>         0.0887
      7 O1         -1.1656   -0.7009    0.0099 O.3       1 <0>        -0.4929
      8 C7          1.2386   -2.1859   -0.0256 C.3       1 <0>         0.1051
      9 C8          1.1428   -2.7108    1.4098 C.3       1 <0>         0.0390
     10 O2          1.2793   -4.1350    1.3989 O.3       1 <0>        -0.3757
     11 C9          2.5037   -4.5885    0.8140 C.3       1 <0>         0.0200
     12 C10         2.5995   -4.0635   -0.6215 C.3       1 <0>         0.0259
     13 O3          2.4631   -2.6394   -0.6105 O.3       1 <0>        -0.3722
     14 O4          3.5624    2.0876    0.0063 O.3       1 <0>        -0.2900
     15 C11         3.5721    3.4707   -0.3165 C.3       1 <0>         0.1081
     16 C12         3.3811    3.6843   -1.8208 C.3       1 <0>        -0.1036
     17 C13         3.5532    5.1678   -2.0837 C.2       1 <0>         0.2725
     18 C14         2.9716    6.1087   -1.1114 C.2       1 <0>        -0.2602
     19 C15         2.4627    5.6563    0.0796 C.2       1 <0>         0.3093
     20 C16         2.4519    4.1922    0.4376 C.3       1 <0>        -0.0948
     21 C17         1.1078    3.6003   -0.0018 C.3       1 <0>        -0.0721
     22 N1          1.9529    6.5552    0.9631 N.pl3     1 <0>        -0.8237
     23 C18         2.9375    7.5084   -1.4117 C.1       1 <0>         0.2542
     24 N2          2.9104    8.6188   -1.6499 N.1       1 <0>        -0.4348
     25 N3          4.1911    5.5938   -3.1302 N.2       1 <0>        -0.6835
     26 H1         -0.9605    1.9056    0.0260 H         1 <0>         0.1364
     27 H2          3.3396   -0.4939   -0.0321 H         1 <0>         0.1455
     28 H3         -1.5121   -0.8978   -0.8712 H         1 <0>         0.3903
     29 H4          0.3964   -2.5594   -0.6081 H         1 <0>         0.0818
     30 H5          1.9393   -2.2732    2.0116 H         1 <0>         0.0629
     31 H6          0.1751   -2.4409    1.8327 H         1 <0>         0.1112
     32 H7          3.3460   -4.2140    1.3957 H         1 <0>         0.0631
     33 H8          2.5217   -5.6783    0.8053 H         1 <0>         0.1071
     34 H9          3.5672   -4.3335   -1.0443 H         1 <0>         0.1092
     35 H10         1.8030   -4.5012   -1.2233 H         1 <0>         0.0631
     36 H11         4.5319    3.8993   -0.0282 H         1 <0>         0.1308
     37 H12         4.1306    3.1191   -2.3748 H         1 <0>         0.1103
     38 H13         2.5887    4.0709    1.5121 H         1 <0>         0.1192
     39 H14         0.8718    3.9486   -1.0073 H         1 <0>         0.0957
     40 H15         0.3271    3.9305    0.6835 H         1 <0>         0.0929
     41 H16         1.9527    7.5009    0.7472 H         1 <0>         0.4096
     42 H17         1.5895    6.2509    1.8094 H         1 <0>         0.4113
     43 H18         4.2916    6.5465   -3.2824 H         1 <0>         0.3374
     44 H19         2.3811    3.3677   -2.1173 H         1 <0>         0.0998
@<TRIPOS>BOND
     1    1    6 ar
     2    1    2 ar
     3    1   26 1
     4    2   21 1
     5    2    3 ar
     6    3    4 ar
     7    3   14 1
     8    4    5 ar
     9    4   27 1
    10    5    6 ar
    11    5    8 1
    12    6    7 1
    13    7   28 1
    14    8   13 1
    15    8    9 1
    16    8   29 1
    17    9   10 1
    18    9   30 1
    19    9   31 1
    20   10   11 1
    21   11   12 1
    22   11   32 1
    23   11   33 1
    24   12   13 1
    25   12   34 1
    26   12   35 1
    27   14   15 1
    28   15   20 1
    29   15   16 1
    30   15   36 1
    31   16   17 1
    32   16   37 1
    33   16   44 1
    34   17   18 1
    35   17   25 2
    36   18   19 2
    37   18   23 1
    38   19   20 1
    39   19   22 1
    40   20   21 1
    41   20   38 1
    42   21   39 1
    43   21   40 1
    44   22   41 1
    45   22   42 1
    46   23   24 3
    47   25   43 1
@<TRIPOS>MOLECULE
CHEMBL178413__7
   44    47     0     0     0
SMALL
USER_CHARGES

@<TRIPOS>ATOM
      1 C1         -0.0167    1.3808    0.0096 C.ar      1 <0>        -0.1072
      2 C2          1.1700    2.0963    0.0021 C.ar      1 <0>        -0.1328
      3 C3          2.3780    1.4227   -0.0075 C.ar      1 <0>         0.1368
      4 C4          2.3961    0.0320   -0.0217 C.ar      1 <0>        -0.1069
      5 C5          1.2139   -0.6791   -0.0156 C.ar      1 <0>        -0.0786
      6 C6          0.0021   -0.0041    0.0020 C.ar      1 <0>         0.0810
      7 O1         -1.1655   -0.7010    0.0127 O.3       1 <0>        -0.4938
      8 C7          1.2388   -2.1858   -0.0290 C.3       1 <0>         0.1067
      9 C8          1.1447   -2.7120    1.4061 C.3       1 <0>         0.0390
     10 O2          1.2813   -4.1362    1.3937 O.3       1 <0>        -0.3766
     11 C9          2.5052   -4.5890    0.8070 C.3       1 <0>         0.0203
     12 C10         2.5993   -4.0627   -0.6280 C.3       1 <0>         0.0257
     13 O3          2.4627   -2.6386   -0.6157 O.3       1 <0>        -0.3718
     14 O4          3.5604    2.0889    0.0134 O.3       1 <0>        -0.2941
     15 C11         3.5831    3.4769   -0.2594 C.3       1 <0>         0.1897
     16 C12         3.4698    3.7595   -1.7409 C.2       1 <0>        -0.4473
     17 C13         3.5097    5.1956   -2.0978 C.2       1 <0>         0.2951
     18 C14         2.9207    6.1266   -1.1014 C.2       1 <0>        -0.2209
     19 C15         2.4461    5.6591    0.0944 C.2       1 <0>         0.3144
     20 C16         2.4426    4.1977    0.4617 C.3       1 <0>        -0.0984
     21 C17         1.1090    3.5995   -0.0024 C.3       1 <0>        -0.0605
     22 N1          1.9550    6.5551    0.9925 N.pl3     1 <0>        -0.8279
     23 C18         2.8492    7.5265   -1.3944 C.1       1 <0>         0.2534
     24 N2          2.7925    8.6371   -1.6268 N.1       1 <0>        -0.4401
     25 N3          4.0324    5.6191   -3.2224 N.pl3     1 <0>        -0.8059
     26 H1         -0.9606    1.9055    0.0260 H         1 <0>         0.1329
     27 H2          3.3396   -0.4934   -0.0373 H         1 <0>         0.1423
     28 H3         -1.5141   -0.8979   -0.8676 H         1 <0>         0.3876
     29 H4          0.3960   -2.5589   -0.6109 H         1 <0>         0.0802
     30 H5          1.9418   -2.2748    2.0074 H         1 <0>         0.0629
     31 H6          0.1774   -2.4425    1.8302 H         1 <0>         0.1110
     32 H7          3.3480   -4.2149    1.3882 H         1 <0>         0.0628
     33 H8          2.5232   -5.6788    0.7973 H         1 <0>         0.1064
     34 H9          3.5665   -4.3322   -1.0522 H         1 <0>         0.1082
     35 H10         1.8022   -4.4999   -1.2294 H         1 <0>         0.0622
     36 H11         4.5311    3.8866    0.0892 H         1 <0>         0.1060
     37 H12         3.3680    2.9772   -2.4784 H         1 <0>         0.1285
     38 H13         2.5549    4.0852    1.5401 H         1 <0>         0.1061
     39 H14         0.8920    3.9469   -1.0125 H         1 <0>         0.0951
     40 H15         0.3151    3.9287    0.6680 H         1 <0>         0.0811
     41 H16         1.9467    7.5013    0.7788 H         1 <0>         0.4069
     42 H17         1.6131    6.2479    1.8467 H         1 <0>         0.4114
     43 H18         4.4092    4.9842   -3.8515 H         1 <0>         0.4120
     44 H19         4.0425    6.5675   -3.4257 H         1 <0>         0.3970
@<TRIPOS>BOND
     1    1    6 ar
     2    1    2 ar
     3    1   26 1
     4    2   21 1
     5    2    3 ar
     6    3    4 ar
     7    3   14 1
     8    4    5 ar
     9    4   27 1
    10    5    6 ar
    11    5    8 1
    12    6    7 1
    13    7   28 1
    14    8   13 1
    15    8    9 1
    16    8   29 1
    17    9   10 1
    18    9   30 1
    19    9   31 1
    20   10   11 1
    21   11   12 1
    22   11   32 1
    23   11   33 1
    24   12   13 1
    25   12   34 1
    26   12   35 1
    27   14   15 1
    28   15   20 1
    29   15   16 1
    30   15   36 1
    31   16   17 1
    32   16   37 1
    33   17   18 1
    34   17   25 2
    35   18   19 2
    36   18   23 1
    37   19   20 1
    38   19   22 1
    39   20   21 1
    40   20   38 1
    41   21   39 1
    42   21   40 1
    43   22   41 1
    44   22   42 1
    45   23   24 3
    46   25   43 1
    47   25   44 1
@<TRIPOS>MOLECULE
CHEMBL178413__8
   44    47     0     0     0
SMALL
USER_CHARGES

@<TRIPOS>ATOM
      1 C1         -0.0167    1.3811    0.0096 C.ar      1 <0>        -0.1052
      2 C2          1.1698    2.0955    0.0021 C.ar      1 <0>        -0.1487
      3 C3          2.3794    1.4243   -0.0080 C.ar      1 <0>         0.1339
      4 C4          2.3966    0.0328   -0.0182 C.ar      1 <0>        -0.1027
      5 C5          1.2144   -0.6780   -0.0136 C.ar      1 <0>        -0.0748
      6 C6          0.0021   -0.0041    0.0020 C.ar      1 <0>         0.0856
      7 O1         -1.1653   -0.7015    0.0089 O.3       1 <0>        -0.4920
      8 C7          1.2400   -2.1848   -0.0250 C.3       1 <0>         0.1005
      9 C8          1.1191   -2.6878   -1.4663 C.3       1 <0>         0.0384
     10 O2          1.2562   -4.1119   -1.4795 O.3       1 <0>        -0.3753
     11 C9          2.4910   -4.5735   -0.9233 C.3       1 <0>         0.0215
     12 C10         2.6120   -4.0704    0.5181 C.3       1 <0>         0.0249
     13 O3          2.4748   -2.6463    0.5312 O.3       1 <0>        -0.3704
     14 O4          3.5646    2.0861    0.0027 O.3       1 <0>        -0.2984
     15 C11         3.5763    3.4689   -0.3631 C.3       1 <0>         0.1097
     16 C12         4.9229    4.0689    0.0791 C.3       1 <0>        -0.1311
     17 C13         5.0930    3.7470    1.5495 C.2       1 <0>         0.2776
     18 C14         3.9180    3.8853    2.4269 C.2       1 <0>        -0.1848
     19 C15         2.6724    4.0838    1.8814 C.2       1 <0>         0.2951
     20 C16         2.4604    4.1844    0.4022 C.3       1 <0>        -0.1017
     21 C17         1.1100    3.6012   -0.0004 C.3       1 <0>        -0.0730
     22 N1          1.5999    4.1926    2.7097 N.pl3     1 <0>        -0.8270
     23 C18         4.0735    3.8124    3.8486 C.1       1 <0>         0.2776
     24 N2          4.1969    3.7546    4.9764 N.1       1 <0>        -0.4470
     25 N3          6.2384    3.3610    2.0214 N.2       1 <0>        -0.6905
     26 H1         -0.9604    1.9061    0.0260 H         1 <0>         0.1356
     27 H2          3.3398   -0.4930   -0.0302 H         1 <0>         0.1431
     28 H3         -1.5110   -0.8985   -0.8725 H         1 <0>         0.3883
     29 H4          0.4084   -2.5677    0.5665 H         1 <0>         0.0885
     30 H5          0.1439   -2.4121   -1.8678 H         1 <0>         0.1031
     31 H6          1.9046   -2.2406   -2.0754 H         1 <0>         0.0642
     32 H7          2.5095   -5.6633   -0.9315 H         1 <0>         0.1082
     33 H8          3.3227   -4.1896   -1.5141 H         1 <0>         0.0634
     34 H9          1.8264   -4.5176    1.1272 H         1 <0>         0.0639
     35 H10         3.5871   -4.3461    0.9196 H         1 <0>         0.1094
     36 H11         3.4342    3.5806   -1.4380 H         1 <0>         0.1032
     37 H12         5.7348    3.6227   -0.4952 H         1 <0>         0.0971
     38 H13         2.4651    5.2374    0.1203 H         1 <0>         0.1293
     39 H14         0.8495    3.9503   -0.9996 H         1 <0>         0.1006
     40 H15         0.3486    3.9333    0.7052 H         1 <0>         0.0874
     41 H16         1.7205    4.1299    3.6702 H         1 <0>         0.4092
     42 H17         0.7140    4.3329    2.3404 H         1 <0>         0.4069
     43 H18         7.0024    3.2747    1.4300 H         1 <0>         0.3405
     44 H19         4.9138    5.1491   -0.0661 H         1 <0>         0.1161
@<TRIPOS>BOND
     1    1    6 ar
     2    1    2 ar
     3    1   26 1
     4    2   21 1
     5    2    3 ar
     6    3    4 ar
     7    3   14 1
     8    4    5 ar
     9    4   27 1
    10    5    6 ar
    11    5    8 1
    12    6    7 1
    13    7   28 1
    14    8   13 1
    15    8    9 1
    16    8   29 1
    17    9   10 1
    18    9   30 1
    19    9   31 1
    20   10   11 1
    21   11   12 1
    22   11   32 1
    23   11   33 1
    24   12   13 1
    25   12   34 1
    26   12   35 1
    27   14   15 1
    28   15   20 1
    29   15   16 1
    30   15   36 1
    31   16   17 1
    32   16   37 1
    33   16   44 1
    34   17   18 1
    35   17   25 2
    36   18   19 2
    37   18   23 1
    38   19   20 1
    39   19   22 1
    40   20   21 1
    41   20   38 1
    42   21   39 1
    43   21   40 1
    44   22   41 1
    45   22   42 1
    46   23   24 3
    47   25   43 1
@<TRIPOS>MOLECULE
CHEMBL178413__9
   44    47     0     0     0
SMALL
USER_CHARGES

@<TRIPOS>ATOM
      1 C1          0.0683    1.2196    0.1427 C.ar      1 <0>        -0.1045
      2 C2          1.2317    1.9698    0.0996 C.ar      1 <0>        -0.1548
      3 C3          2.4621    1.3379    0.1146 C.ar      1 <0>         0.1396
      4 C4          2.5232   -0.0517    0.1611 C.ar      1 <0>        -0.1114
      5 C5          1.3645   -0.7987    0.2018 C.ar      1 <0>        -0.0753
      6 C6          0.1311   -0.1635    0.1952 C.ar      1 <0>         0.0759
      7 O1         -1.0134   -0.8966    0.2396 O.3       1 <0>        -0.4934
      8 C7          1.4381   -2.3030    0.2530 C.3       1 <0>         0.1016
      9 C8          1.3273   -2.8694   -1.1655 C.3       1 <0>         0.0381
     10 O2          1.5098   -4.2877   -1.1202 O.3       1 <0>        -0.3760
     11 C9          2.7611   -4.6862   -0.5522 C.3       1 <0>         0.0216
     12 C10         2.8719   -4.1198    0.8664 C.3       1 <0>         0.0249
     13 O3          2.6894   -2.7014    0.8210 O.3       1 <0>        -0.3704
     14 O4          3.6250    2.0364    0.0998 O.3       1 <0>        -0.3075
     15 C11         3.6030    3.4057   -0.3129 C.3       1 <0>         0.1908
     16 C12         4.8989    4.0469    0.1672 C.2       1 <0>        -0.4571
     17 C13         5.1093    4.0063    1.6291 C.2       1 <0>         0.3392
     18 C14         3.8913    4.1330    2.4707 C.2       1 <0>        -0.2303
     19 C15         2.6538    4.1660    1.8791 C.2       1 <0>         0.3315
     20 C16         2.4525    4.1174    0.4006 C.3       1 <0>        -0.1066
     21 C17         1.1252    3.4710    0.0292 C.3       1 <0>        -0.0722
     22 N1          1.5565    4.2471    2.6790 N.pl3     1 <0>        -0.8284
     23 C18         4.0087    4.2199    3.8952 C.1       1 <0>         0.2558
     24 N2          4.1018    4.2888    5.0253 N.1       1 <0>        -0.4426
     25 N3          6.3019    3.8661    2.1535 N.pl3     1 <0>        -0.7978
     26 H1         -0.8914    1.7148    0.1399 H         1 <0>         0.1322
     27 H2          3.4826   -0.5476    0.1651 H         1 <0>         0.1408
     28 H3         -1.3568   -1.1427   -0.6302 H         1 <0>         0.3861
     29 H4          0.6216   -2.6871    0.8645 H         1 <0>         0.0868
     30 H5          0.3422   -2.6417   -1.5728 H         1 <0>         0.1030
     31 H6          2.0956   -2.4232   -1.7970 H         1 <0>         0.0647
     32 H7          2.8143   -5.7742   -0.5152 H         1 <0>         0.1073
     33 H8          3.5776   -4.3011   -1.1630 H         1 <0>         0.0634
     34 H9          2.1036   -4.5660    1.4978 H         1 <0>         0.0629
     35 H10         3.8570   -4.3475    1.2736 H         1 <0>         0.1084
     36 H11         3.4959    3.4832   -1.3949 H         1 <0>         0.0913
     37 H12         5.6101    4.4967   -0.5098 H         1 <0>         0.1323
     38 H13         2.4200    5.1439    0.0355 H         1 <0>         0.1262
     39 H14         0.8529    3.7652   -0.9843 H         1 <0>         0.0977
     40 H15         0.3541    3.8098    0.7211 H         1 <0>         0.0797
     41 H16         1.6500    4.1621    3.6407 H         1 <0>         0.4066
     42 H17         0.6805    4.3900    2.2876 H         1 <0>         0.4086
     43 H18         7.0785    3.7854    1.5778 H         1 <0>         0.4135
     44 H19         6.4082    3.8429    3.1174 H         1 <0>         0.3975
@<TRIPOS>BOND
     1    1    6 ar
     2    1    2 ar
     3    1   26 1
     4    2   21 1
     5    2    3 ar
     6    3    4 ar
     7    3   14 1
     8    4    5 ar
     9    4   27 1
    10    5    6 ar
    11    5    8 1
    12    6    7 1
    13    7   28 1
    14    8   13 1
    15    8    9 1
    16    8   29 1
    17    9   10 1
    18    9   30 1
    19    9   31 1
    20   10   11 1
    21   11   12 1
    22   11   32 1
    23   11   33 1
    24   12   13 1
    25   12   34 1
    26   12   35 1
    27   14   15 1
    28   15   20 1
    29   15   16 1
    30   15   36 1
    31   16   17 1
    32   16   37 1
    33   17   18 1
    34   17   25 2
    35   18   19 2
    36   18   23 1
    37   19   20 1
    38   19   22 1
    39   20   21 1
    40   20   38 1
    41   21   39 1
    42   21   40 1
    43   22   41 1
    44   22   42 1
    45   23   24 3
    46   25   43 1
    47   25   44 1
@<TRIPOS>MOLECULE
CHEMBL178413__10
   44    47     0     0     0
SMALL
USER_CHARGES

@<TRIPOS>ATOM
      1 C1         -0.0167    1.3811    0.0096 C.ar      1 <0>        -0.1052
      2 C2          1.1697    2.0955    0.0021 C.ar      1 <0>        -0.1410
      3 C3          2.3792    1.4236   -0.0122 C.ar      1 <0>         0.1258
      4 C4          2.3966    0.0325   -0.0215 C.ar      1 <0>        -0.1001
      5 C5          1.2143   -0.6783   -0.0147 C.ar      1 <0>        -0.0756
      6 C6          0.0021   -0.0041    0.0020 C.ar      1 <0>         0.0888
      7 O1         -1.1653   -0.7014    0.0101 O.3       1 <0>        -0.4919
      8 C7          1.2397   -2.1850   -0.0255 C.3       1 <0>         0.1008
      9 C8          1.1164   -2.6886   -1.4665 C.3       1 <0>         0.0375
     10 O2          1.2534   -4.1127   -1.4793 O.3       1 <0>        -0.3752
     11 C9          2.4890   -4.5742   -0.9249 C.3       1 <0>         0.0209
     12 C10         2.6122   -4.0706    0.5161 C.3       1 <0>         0.0253
     13 O3          2.4753   -2.6464    0.5289 O.3       1 <0>        -0.3707
     14 O4          3.5683    2.0850   -0.0136 O.3       1 <0>        -0.2964
     15 C11         3.5528    3.4667   -0.3772 C.3       1 <0>         0.1096
     16 C12         4.9104    4.1013   -0.0574 C.3       1 <0>        -0.0673
     17 C13         4.8515    5.5501   -0.4961 C.2       1 <0>         0.2733
     18 C14         3.6231    6.3066   -0.1980 C.2       1 <0>        -0.2615
     19 C15         2.4998    5.6487    0.2373 C.2       1 <0>         0.3149
     20 C16         2.4634    4.1649    0.4418 C.3       1 <0>        -0.1030
     21 C17         1.1067    3.6030    0.0085 C.3       1 <0>        -0.0754
     22 N1          1.3767    6.3713    0.4923 N.pl3     1 <0>        -0.8260
     23 C18         3.6010    7.7290   -0.3619 C.1       1 <0>         0.2559
     24 N2          3.5834    8.8574   -0.4920 N.1       1 <0>        -0.4351
     25 N3          5.8488    6.1057   -1.1128 N.2       1 <0>        -0.6822
     26 H1         -0.9604    1.9061    0.0260 H         1 <0>         0.1366
     27 H2          3.3398   -0.4933   -0.0344 H         1 <0>         0.1462
     28 H3         -1.5119   -0.8983   -0.8709 H         1 <0>         0.3894
     29 H4          0.4089   -2.5676    0.5674 H         1 <0>         0.0891
     30 H5          0.1407   -2.4129   -1.8666 H         1 <0>         0.1031
     31 H6          1.9011   -2.2417   -2.0770 H         1 <0>         0.0649
     32 H7          2.5073   -5.6640   -0.9327 H         1 <0>         0.1081
     33 H8          3.3198   -4.1907   -1.5172 H         1 <0>         0.0639
     34 H9          1.8276   -4.5175    1.1265 H         1 <0>         0.0639
     35 H10         3.5880   -4.3463    0.9161 H         1 <0>         0.1098
     36 H11         3.3317    3.5639   -1.4401 H         1 <0>         0.0916
     37 H12         5.1012    4.0467    1.0144 H         1 <0>         0.1069
     38 H13         2.6109    3.9440    1.4990 H         1 <0>         0.1273
     39 H14         0.8674    3.9612   -0.9928 H         1 <0>         0.0924
     40 H15         0.3370    3.9319    0.7066 H         1 <0>         0.0915
     41 H16         1.3797    7.3330    0.3658 H         1 <0>         0.4097
     42 H17         0.5725    5.9252    0.8006 H         1 <0>         0.4097
     43 H18         5.7932    7.0347   -1.3862 H         1 <0>         0.3386
     44 H19         5.6992    3.5817   -0.6014 H         1 <0>         0.1111
@<TRIPOS>BOND
     1    1    6 ar
     2    1    2 ar
     3    1   26 1
     4    2   21 1
     5    2    3 ar
     6    3    4 ar
     7    3   14 1
     8    4    5 ar
     9    4   27 1
    10    5    6 ar
    11    5    8 1
    12    6    7 1
    13    7   28 1
    14    8   13 1
    15    8    9 1
    16    8   29 1
    17    9   10 1
    18    9   30 1
    19    9   31 1
    20   10   11 1
    21   11   12 1
    22   11   32 1
    23   11   33 1
    24   12   13 1
    25   12   34 1
    26   12   35 1
    27   14   15 1
    28   15   20 1
    29   15   16 1
    30   15   36 1
    31   16   17 1
    32   16   37 1
    33   16   44 1
    34   17   18 1
    35   17   25 2
    36   18   19 2
    37   18   23 1
    38   19   20 1
    39   19   22 1
    40   20   21 1
    41   20   38 1
    42   21   39 1
    43   21   40 1
    44   22   41 1
    45   22   42 1
    46   23   24 3
    47   25   43 1
@<TRIPOS>MOLECULE
CHEMBL178413__11
   44    47     0     0     0
SMALL
USER_CHARGES

@<TRIPOS>ATOM
      1 C1         -0.0167    1.3811    0.0096 C.ar      1 <0>        -0.1051
      2 C2          1.1697    2.0954    0.0021 C.ar      1 <0>        -0.1432
      3 C3          2.3792    1.4235   -0.0129 C.ar      1 <0>         0.1300
      4 C4          2.3966    0.0324   -0.0199 C.ar      1 <0>        -0.1044
      5 C5          1.2143   -0.6783   -0.0126 C.ar      1 <0>        -0.0764
      6 C6          0.0021   -0.0041    0.0020 C.ar      1 <0>         0.0829
      7 O1         -1.1653   -0.7014    0.0097 O.3       1 <0>        -0.4925
      8 C7          1.2396   -2.1851   -0.0208 C.3       1 <0>         0.1016
      9 C8          1.1170   -2.6911   -1.4610 C.3       1 <0>         0.0376
     10 O2          1.2540   -4.1152   -1.4714 O.3       1 <0>        -0.3758
     11 C9          2.4893   -4.5758   -0.9156 C.3       1 <0>         0.0211
     12 C10         2.6119   -4.0698    0.5246 C.3       1 <0>         0.0251
     13 O3          2.4750   -2.6456    0.5349 O.3       1 <0>        -0.3703
     14 O4          3.5714    2.0835   -0.0217 O.3       1 <0>        -0.2941
     15 C11         3.5428    3.4599   -0.3983 C.3       1 <0>         0.1944
     16 C12         4.8736    4.1177   -0.1023 C.2       1 <0>        -0.4248
     17 C13         4.9179    5.5771   -0.3358 C.2       1 <0>         0.3024
     18 C14         3.6636    6.3216   -0.0539 C.2       1 <0>        -0.2247
     19 C15         2.5231    5.6418    0.2886 C.2       1 <0>         0.3237
     20 C16         2.4647    4.1570    0.4380 C.3       1 <0>        -0.1093
     21 C17         1.1044    3.6044    0.0113 C.3       1 <0>        -0.0749
     22 N1          1.3858    6.3569    0.5030 N.pl3     1 <0>        -0.8294
     23 C18         3.6458    7.7510   -0.1395 C.1       1 <0>         0.2555
     24 N2          3.6317    8.8849   -0.2074 N.1       1 <0>        -0.4400
     25 N3          5.9999    6.1784   -0.7657 N.pl3     1 <0>        -0.8038
     26 H1         -0.9604    1.9061    0.0260 H         1 <0>         0.1348
     27 H2          3.3399   -0.4934   -0.0316 H         1 <0>         0.1443
     28 H3         -1.5117   -0.8983   -0.8714 H         1 <0>         0.3876
     29 H4          0.4086   -2.5666    0.5723 H         1 <0>         0.0882
     30 H5          0.1415   -2.4160   -1.8620 H         1 <0>         0.1030
     31 H6          1.9020   -2.2452   -2.0719 H         1 <0>         0.0648
     32 H7          2.5076   -5.6656   -0.9216 H         1 <0>         0.1075
     33 H8          3.3204   -4.1933   -1.5081 H         1 <0>         0.0635
     34 H9          1.8269   -4.5157    1.1354 H         1 <0>         0.0634
     35 H10         3.5874   -4.3449    0.9255 H         1 <0>         0.1091
     36 H11         3.3006    3.5467   -1.4575 H         1 <0>         0.0693
     37 H12         5.7282    3.5617    0.2538 H         1 <0>         0.1342
     38 H13         2.6172    3.9041    1.4872 H         1 <0>         0.1208
     39 H14         0.8613    3.9653   -0.9882 H         1 <0>         0.0891
     40 H15         0.3398    3.9324    0.7155 H         1 <0>         0.0864
     41 H16         1.3958    7.3226    0.4124 H         1 <0>         0.4071
     42 H17         0.5650    5.9010    0.7465 H         1 <0>         0.4101
     43 H18         6.8036    5.6641   -0.9405 H         1 <0>         0.4127
     44 H19         5.9972    7.1377   -0.9092 H         1 <0>         0.3984
@<TRIPOS>BOND
     1    1    6 ar
     2    1    2 ar
     3    1   26 1
     4    2   21 1
     5    2    3 ar
     6    3    4 ar
     7    3   14 1
     8    4    5 ar
     9    4   27 1
    10    5    6 ar
    11    5    8 1
    12    6    7 1
    13    7   28 1
    14    8   13 1
    15    8    9 1
    16    8   29 1
    17    9   10 1
    18    9   30 1
    19    9   31 1
    20   10   11 1
    21   11   12 1
    22   11   32 1
    23   11   33 1
    24   12   13 1
    25   12   34 1
    26   12   35 1
    27   14   15 1
    28   15   20 1
    29   15   16 1
    30   15   36 1
    31   16   17 1
    32   16   37 1
    33   17   18 1
    34   17   25 2
    35   18   19 2
    36   18   23 1
    37   19   20 1
    38   19   22 1
    39   20   21 1
    40   20   38 1
    41   21   39 1
    42   21   40 1
    43   22   41 1
    44   22   42 1
    45   23   24 3
    46   25   43 1
    47   25   44 1
@<TRIPOS>MOLECULE
CHEMBL178413__12
   44    47     0     0     0
SMALL
USER_CHARGES

@<TRIPOS>ATOM
      1 C1         -0.0167    1.3811    0.0096 C.ar      1 <0>        -0.1053
      2 C2          1.1697    2.0955    0.0021 C.ar      1 <0>        -0.1409
      3 C3          2.3792    1.4236   -0.0138 C.ar      1 <0>         0.1257
      4 C4          2.3966    0.0325   -0.0196 C.ar      1 <0>        -0.1000
      5 C5          1.2143   -0.6783   -0.0124 C.ar      1 <0>        -0.0756
      6 C6          0.0021   -0.0041    0.0020 C.ar      1 <0>         0.0889
      7 O1         -1.1653   -0.7014    0.0092 O.3       1 <0>        -0.4920
      8 C7          1.2397   -2.1850   -0.0207 C.3       1 <0>         0.1007
      9 C8          1.1173   -2.6910   -1.4609 C.3       1 <0>         0.0378
     10 O2          1.2543   -4.1152   -1.4713 O.3       1 <0>        -0.3753
     11 C9          2.4896   -4.5757   -0.9154 C.3       1 <0>         0.0210
     12 C10         2.6120   -4.0697    0.5248 C.3       1 <0>         0.0252
     13 O3          2.4750   -2.6455    0.5352 O.3       1 <0>        -0.3707
     14 O4          3.5682    2.0851   -0.0280 O.3       1 <0>        -0.2967
     15 C11         3.5597    3.4628    0.3506 C.3       1 <0>         0.1093
     16 C12         4.9111    4.1010    0.0118 C.3       1 <0>        -0.0670
     17 C13         4.8607    5.5450    0.4670 C.2       1 <0>         0.2731
     18 C14         3.6269    6.3045    0.2004 C.2       1 <0>        -0.2611
     19 C15         2.4952    5.6510   -0.2195 C.2       1 <0>         0.3144
     20 C16         2.4550    4.1696   -0.4400 C.3       1 <0>        -0.1022
     21 C17         1.1068    3.6029    0.0131 C.3       1 <0>        -0.0758
     22 N1          1.3673    6.3761   -0.4444 N.pl3     1 <0>        -0.8261
     23 C18         3.6080    7.7251    0.3799 C.1       1 <0>         0.2558
     24 N2          3.5931    8.8520    0.5223 N.1       1 <0>        -0.4349
     25 N3          5.8696    6.0940    1.0704 N.2       1 <0>        -0.6818
     26 H1         -0.9604    1.9061    0.0260 H         1 <0>         0.1367
     27 H2          3.3399   -0.4933   -0.0303 H         1 <0>         0.1463
     28 H3         -1.5113   -0.8983   -0.8721 H         1 <0>         0.3894
     29 H4          0.4086   -2.5666    0.5724 H         1 <0>         0.0890
     30 H5          0.1418   -2.4160   -1.8620 H         1 <0>         0.1030
     31 H6          1.9023   -2.2451   -2.0717 H         1 <0>         0.0649
     32 H7          2.5079   -5.6655   -0.9215 H         1 <0>         0.1081
     33 H8          3.3207   -4.1931   -1.5079 H         1 <0>         0.0638
     34 H9          1.8270   -4.5156    1.1356 H         1 <0>         0.0639
     35 H10         3.5875   -4.3448    0.9259 H         1 <0>         0.1098
     36 H11         3.3590    3.5486    1.4185 H         1 <0>         0.0918
     37 H12         5.7100    3.5756    0.5351 H         1 <0>         0.1112
     38 H13         2.5823    3.9601   -1.5021 H         1 <0>         0.1271
     39 H14         0.3239    3.9393   -0.6667 H         1 <0>         0.0914
     40 H15         0.8866    3.9505    1.0225 H         1 <0>         0.0925
     41 H16         1.3728    7.3364   -0.3078 H         1 <0>         0.4097
     42 H17         0.5571    5.9331   -0.7416 H         1 <0>         0.4095
     43 H18         5.8193    7.0200    1.3548 H         1 <0>         0.3387
     44 H19         5.0814    4.0578   -1.0640 H         1 <0>         0.1067
@<TRIPOS>BOND
     1    1    6 ar
     2    1    2 ar
     3    1   26 1
     4    2   21 1
     5    2    3 ar
     6    3    4 ar
     7    3   14 1
     8    4    5 ar
     9    4   27 1
    10    5    6 ar
    11    5    8 1
    12    6    7 1
    13    7   28 1
    14    8   13 1
    15    8    9 1
    16    8   29 1
    17    9   10 1
    18    9   30 1
    19    9   31 1
    20   10   11 1
    21   11   12 1
    22   11   32 1
    23   11   33 1
    24   12   13 1
    25   12   34 1
    26   12   35 1
    27   14   15 1
    28   15   20 1
    29   15   16 1
    30   15   36 1
    31   16   17 1
    32   16   37 1
    33   16   44 1
    34   17   18 1
    35   17   25 2
    36   18   19 2
    37   18   23 1
    38   19   20 1
    39   19   22 1
    40   20   21 1
    41   20   38 1
    42   21   39 1
    43   21   40 1
    44   22   41 1
    45   22   42 1
    46   23   24 3
    47   25   43 1
@<TRIPOS>MOLECULE
CHEMBL178413__13
   44    47     0     0     0
SMALL
USER_CHARGES

@<TRIPOS>ATOM
      1 C1         -0.0167    1.3811    0.0096 C.ar      1 <0>        -0.1052
      2 C2          1.1697    2.0954    0.0021 C.ar      1 <0>        -0.1431
      3 C3          2.3792    1.4235   -0.0130 C.ar      1 <0>         0.1299
      4 C4          2.3966    0.0324   -0.0212 C.ar      1 <0>        -0.1043
      5 C5          1.2143   -0.6783   -0.0145 C.ar      1 <0>        -0.0764
      6 C6          0.0021   -0.0041    0.0020 C.ar      1 <0>         0.0830
      7 O1         -1.1653   -0.7014    0.0090 O.3       1 <0>        -0.4926
      8 C7          1.2396   -2.1851   -0.0238 C.3       1 <0>         0.1016
      9 C8          1.1174   -2.6902   -1.4644 C.3       1 <0>         0.0377
     10 O2          1.2543   -4.1143   -1.4756 O.3       1 <0>        -0.3758
     11 C9          2.4895   -4.5752   -0.9198 C.3       1 <0>         0.0211
     12 C10         2.6117   -4.0701    0.5207 C.3       1 <0>         0.0251
     13 O3          2.4748   -2.6460    0.5320 O.3       1 <0>        -0.3703
     14 O4          3.5714    2.0835   -0.0199 O.3       1 <0>        -0.2944
     15 C11         3.5501    3.4558    0.3718 C.3       1 <0>         0.1942
     16 C12         4.8751    4.1168    0.0576 C.2       1 <0>        -0.4247
     17 C13         4.9240    5.5737    0.3058 C.2       1 <0>         0.3024
     18 C14         3.6647    6.3211    0.0558 C.2       1 <0>        -0.2245
     19 C15         2.5175    5.6448   -0.2713 C.2       1 <0>         0.3234
     20 C16         2.4563    4.1617   -0.4363 C.3       1 <0>        -0.1085
     21 C17         1.1043    3.6044    0.0104 C.3       1 <0>        -0.0753
     22 N1          1.3763    6.3619   -0.4555 N.pl3     1 <0>        -0.8294
     23 C18         3.6486    7.7494    0.1569 C.1       1 <0>         0.2555
     24 N2          3.6359    8.8825    0.2372 N.1       1 <0>        -0.4399
     25 N3          6.0138    6.1703    0.7222 N.pl3     1 <0>        -0.8037
     26 H1         -0.9604    1.9061    0.0260 H         1 <0>         0.1349
     27 H2          3.3399   -0.4934   -0.0331 H         1 <0>         0.1443
     28 H3         -1.5111   -0.8983   -0.8723 H         1 <0>         0.3876
     29 H4          0.4084   -2.5670    0.5689 H         1 <0>         0.0882
     30 H5          0.1419   -2.4148   -1.8654 H         1 <0>         0.1030
     31 H6          1.9024   -2.2439   -2.0747 H         1 <0>         0.0648
     32 H7          2.5078   -5.6650   -0.9265 H         1 <0>         0.1075
     33 H8          3.3207   -4.1923   -1.5119 H         1 <0>         0.0635
     34 H9          1.8266   -4.5164    1.1311 H         1 <0>         0.0634
     35 H10         3.5871   -4.3455    0.9218 H         1 <0>         0.1091
     36 H11         3.3282    3.5313    1.4363 H         1 <0>         0.0694
     37 H12         5.7230    3.5646   -0.3200 H         1 <0>         0.1341
     38 H13         2.5888    3.9200   -1.4909 H         1 <0>         0.1206
     39 H14         0.3265    3.9399   -0.6756 H         1 <0>         0.0863
     40 H15         0.8804    3.9546    1.0180 H         1 <0>         0.0892
     41 H16         1.3881    7.3266   -0.3548 H         1 <0>         0.4072
     42 H17         0.5507    5.9085   -0.6875 H         1 <0>         0.4100
     43 H18         6.8205    5.6542    0.8767 H         1 <0>         0.4128
     44 H19         6.0139    7.1280    0.8759 H         1 <0>         0.3984
@<TRIPOS>BOND
     1    1    6 ar
     2    1    2 ar
     3    1   26 1
     4    2   21 1
     5    2    3 ar
     6    3    4 ar
     7    3   14 1
     8    4    5 ar
     9    4   27 1
    10    5    6 ar
    11    5    8 1
    12    6    7 1
    13    7   28 1
    14    8   13 1
    15    8    9 1
    16    8   29 1
    17    9   10 1
    18    9   30 1
    19    9   31 1
    20   10   11 1
    21   11   12 1
    22   11   32 1
    23   11   33 1
    24   12   13 1
    25   12   34 1
    26   12   35 1
    27   14   15 1
    28   15   20 1
    29   15   16 1
    30   15   36 1
    31   16   17 1
    32   16   37 1
    33   17   18 1
    34   17   25 2
    35   18   19 2
    36   18   23 1
    37   19   20 1
    38   19   22 1
    39   20   21 1
    40   20   38 1
    41   21   39 1
    42   21   40 1
    43   22   41 1
    44   22   42 1
    45   23   24 3
    46   25   43 1
    47   25   44 1
@<TRIPOS>MOLECULE
CHEMBL178413__14
   44    47     0     0     0
SMALL
USER_CHARGES

@<TRIPOS>ATOM
      1 C1         -0.0167    1.3809    0.0096 C.ar      1 <0>        -0.1049
      2 C2          1.1701    2.0960    0.0021 C.ar      1 <0>        -0.1394
      3 C3          2.3782    1.4225   -0.0073 C.ar      1 <0>         0.1233
      4 C4          2.3962    0.0316   -0.0190 C.ar      1 <0>        -0.1000
      5 C5          1.2138   -0.6792   -0.0136 C.ar      1 <0>        -0.0760
      6 C6          0.0021   -0.0041    0.0020 C.ar      1 <0>         0.0889
      7 O1         -1.1656   -0.7009    0.0099 O.3       1 <0>        -0.4924
      8 C7          1.2386   -2.1859   -0.0256 C.3       1 <0>         0.1010
      9 C8          1.1160   -2.6883   -1.4671 C.3       1 <0>         0.0374
     10 O2          1.2524   -4.1125   -1.4810 O.3       1 <0>        -0.3753
     11 C9          2.4875   -4.5749   -0.9262 C.3       1 <0>         0.0209
     12 C10         2.6101   -4.0724    0.5153 C.3       1 <0>         0.0254
     13 O3          2.4737   -2.6483    0.5292 O.3       1 <0>        -0.3709
     14 O4          3.5624    2.0876    0.0063 O.3       1 <0>        -0.2897
     15 C11         3.5721    3.4707   -0.3165 C.3       1 <0>         0.1079
     16 C12         3.3811    3.6843   -1.8208 C.3       1 <0>        -0.1034
     17 C13         3.5532    5.1678   -2.0837 C.2       1 <0>         0.2726
     18 C14         2.9716    6.1087   -1.1114 C.2       1 <0>        -0.2605
     19 C15         2.4627    5.6563    0.0796 C.2       1 <0>         0.3096
     20 C16         2.4519    4.1922    0.4376 C.3       1 <0>        -0.0950
     21 C17         1.1078    3.6003   -0.0018 C.3       1 <0>        -0.0720
     22 N1          1.9529    6.5552    0.9631 N.pl3     1 <0>        -0.8236
     23 C18         2.9375    7.5084   -1.4117 C.1       1 <0>         0.2542
     24 N2          2.9104    8.6188   -1.6499 N.1       1 <0>        -0.4348
     25 N3          4.1911    5.5938   -3.1302 N.2       1 <0>        -0.6838
     26 H1         -0.9605    1.9056    0.0260 H         1 <0>         0.1365
     27 H2          3.3396   -0.4939   -0.0321 H         1 <0>         0.1455
     28 H3         -1.5121   -0.8978   -0.8712 H         1 <0>         0.3894
     29 H4          0.4073   -2.5686    0.5665 H         1 <0>         0.0888
     30 H5          0.1407   -2.4119   -1.8675 H         1 <0>         0.1033
     31 H6          1.9012   -2.2412   -2.0767 H         1 <0>         0.0653
     32 H7          2.5055   -5.6647   -0.9349 H         1 <0>         0.1078
     33 H8          3.3189   -4.1912   -1.5176 H         1 <0>         0.0638
     34 H9          1.8249   -4.5196    1.1249 H         1 <0>         0.0636
     35 H10         3.5855   -4.3489    0.9157 H         1 <0>         0.1094
     36 H11         4.5319    3.8993   -0.0282 H         1 <0>         0.1308
     37 H12         4.1306    3.1191   -2.3748 H         1 <0>         0.1101
     38 H13         2.5887    4.0709    1.5121 H         1 <0>         0.1193
     39 H14         0.8718    3.9486   -1.0073 H         1 <0>         0.0957
     40 H15         0.3271    3.9305    0.6835 H         1 <0>         0.0929
     41 H16         1.9527    7.5009    0.7472 H         1 <0>         0.4096
     42 H17         1.5895    6.2509    1.8094 H         1 <0>         0.4114
     43 H18         4.2916    6.5465   -3.2824 H         1 <0>         0.3375
     44 H19         2.3811    3.3677   -2.1173 H         1 <0>         0.0998
@<TRIPOS>BOND
     1    1    6 ar
     2    1    2 ar
     3    1   26 1
     4    2   21 1
     5    2    3 ar
     6    3    4 ar
     7    3   14 1
     8    4    5 ar
     9    4   27 1
    10    5    6 ar
    11    5    8 1
    12    6    7 1
    13    7   28 1
    14    8   13 1
    15    8    9 1
    16    8   29 1
    17    9   10 1
    18    9   30 1
    19    9   31 1
    20   10   11 1
    21   11   12 1
    22   11   32 1
    23   11   33 1
    24   12   13 1
    25   12   34 1
    26   12   35 1
    27   14   15 1
    28   15   20 1
    29   15   16 1
    30   15   36 1
    31   16   17 1
    32   16   37 1
    33   16   44 1
    34   17   18 1
    35   17   25 2
    36   18   19 2
    37   18   23 1
    38   19   20 1
    39   19   22 1
    40   20   21 1
    41   20   38 1
    42   21   39 1
    43   21   40 1
    44   22   41 1
    45   22   42 1
    46   23   24 3
    47   25   43 1
@<TRIPOS>MOLECULE
CHEMBL178413__15
   44    47     0     0     0
SMALL
USER_CHARGES

@<TRIPOS>ATOM
      1 C1         -0.0167    1.3808    0.0096 C.ar      1 <0>        -0.1072
      2 C2          1.1700    2.0963    0.0021 C.ar      1 <0>        -0.1331
      3 C3          2.3780    1.4227   -0.0075 C.ar      1 <0>         0.1371
      4 C4          2.3961    0.0320   -0.0217 C.ar      1 <0>        -0.1069
      5 C5          1.2139   -0.6791   -0.0156 C.ar      1 <0>        -0.0784
      6 C6          0.0021   -0.0041    0.0020 C.ar      1 <0>         0.0811
      7 O1         -1.1655   -0.7010    0.0127 O.3       1 <0>        -0.4934
      8 C7          1.2388   -2.1858   -0.0290 C.3       1 <0>         0.1026
      9 C8          1.1147   -2.6869   -1.4708 C.3       1 <0>         0.0376
     10 O2          1.2513   -4.1111   -1.4861 O.3       1 <0>        -0.3762
     11 C9          2.4870   -4.5738   -0.9331 C.3       1 <0>         0.0213
     12 C10         2.6111   -4.0727    0.5087 C.3       1 <0>         0.0251
     13 O3          2.4746   -2.6485    0.5240 O.3       1 <0>        -0.3704
     14 O4          3.5604    2.0889    0.0134 O.3       1 <0>        -0.2938
     15 C11         3.5831    3.4769   -0.2594 C.3       1 <0>         0.1896
     16 C12         3.4698    3.7595   -1.7409 C.2       1 <0>        -0.4479
     17 C13         3.5097    5.1956   -2.0978 C.2       1 <0>         0.2956
     18 C14         2.9207    6.1266   -1.1014 C.2       1 <0>        -0.2214
     19 C15         2.4461    5.6591    0.0944 C.2       1 <0>         0.3149
     20 C16         2.4426    4.1977    0.4617 C.3       1 <0>        -0.0986
     21 C17         1.1090    3.5995   -0.0024 C.3       1 <0>        -0.0604
     22 N1          1.9550    6.5551    0.9925 N.pl3     1 <0>        -0.8278
     23 C18         2.8492    7.5265   -1.3944 C.1       1 <0>         0.2534
     24 N2          2.7925    8.6371   -1.6268 N.1       1 <0>        -0.4401
     25 N3          4.0324    5.6191   -3.2224 N.pl3     1 <0>        -0.8058
     26 H1         -0.9606    1.9055    0.0260 H         1 <0>         0.1330
     27 H2          3.3396   -0.4934   -0.0373 H         1 <0>         0.1423
     28 H3         -1.5141   -0.8979   -0.8676 H         1 <0>         0.3867
     29 H4          0.4082   -2.5692    0.5637 H         1 <0>         0.0874
     30 H5          0.1389   -2.4102   -1.8699 H         1 <0>         0.1029
     31 H6          1.8992   -2.2392   -2.0809 H         1 <0>         0.0647
     32 H7          2.5051   -5.6636   -0.9428 H         1 <0>         0.1071
     33 H8          3.3177   -4.1895   -1.5251 H         1 <0>         0.0632
     34 H9          1.8267   -4.5204    1.1188 H         1 <0>         0.0631
     35 H10         3.5870   -4.3493    0.9078 H         1 <0>         0.1086
     36 H11         4.5311    3.8866    0.0892 H         1 <0>         0.1059
     37 H12         3.3680    2.9772   -2.4784 H         1 <0>         0.1282
     38 H13         2.5549    4.0852    1.5401 H         1 <0>         0.1062
     39 H14         0.8920    3.9469   -1.0125 H         1 <0>         0.0951
     40 H15         0.3151    3.9287    0.6680 H         1 <0>         0.0810
     41 H16         1.9467    7.5013    0.7788 H         1 <0>         0.4069
     42 H17         1.6131    6.2479    1.8467 H         1 <0>         0.4115
     43 H18         4.4092    4.9842   -3.8515 H         1 <0>         0.4119
     44 H19         4.0425    6.5675   -3.4257 H         1 <0>         0.3971
@<TRIPOS>BOND
     1    1    6 ar
     2    1    2 ar
     3    1   26 1
     4    2   21 1
     5    2    3 ar
     6    3    4 ar
     7    3   14 1
     8    4    5 ar
     9    4   27 1
    10    5    6 ar
    11    5    8 1
    12    6    7 1
    13    7   28 1
    14    8   13 1
    15    8    9 1
    16    8   29 1
    17    9   10 1
    18    9   30 1
    19    9   31 1
    20   10   11 1
    21   11   12 1
    22   11   32 1
    23   11   33 1
    24   12   13 1
    25   12   34 1
    26   12   35 1
    27   14   15 1
    28   15   20 1
    29   15   16 1
    30   15   36 1
    31   16   17 1
    32   16   37 1
    33   17   18 1
    34   17   25 2
    35   18   19 2
    36   18   23 1
    37   19   20 1
    38   19   22 1
    39   20   21 1
    40   20   38 1
    41   21   39 1
    42   21   40 1
    43   22   41 1
    44   22   42 1
    45   23   24 3
    46   25   43 1
    47   25   44 1
@<TRIPOS>MOLECULE
CHEMBL1091199
   52    56     0     0     0
SMALL
USER_CHARGES

@<TRIPOS>ATOM
      1 C1          0.0007   -0.5691    0.3964 C.3       1 <0>        -0.1187
      2 C2          0.5770   -1.8615    0.9148 C.ar      1 <0>        -0.0391
      3 C3          0.8407   -2.8979    0.0406 C.ar      1 <0>        -0.1271
      4 C4          1.3686   -4.0850    0.5072 C.ar      1 <0>        -0.0783
      5 C5          1.6397   -4.2444    1.8679 C.ar      1 <0>        -0.1424
      6 C6          1.3761   -3.2020    2.7542 C.ar      1 <0>        -0.0267
      7 C7          0.8483   -2.0061    2.2756 C.ar      1 <0>        -0.0254
      8 C8          0.5702   -0.8903    3.2108 C.2       1 <0>        -0.1919
      9 C9          1.3988    0.2137    3.2406 C.2       1 <0>         0.0635
     10 C10         1.1093    1.2607    4.1414 C.2       1 <0>        -0.2618
     11 C11         1.7351    2.4991    4.4220 C.2       1 <0>         0.1256
     12 N1          1.0534    3.0988    5.3568 N.2       1 <0>        -0.2543
     13 N2         -0.0328    2.2981    5.7284 N.pl3     1 <0>        -0.3391
     14 C12        -0.0032    1.1630    4.9818 C.2       1 <0>         0.3628
     15 N3         -0.8091    0.0576    4.9326 N.am      1 <0>        -0.4966
     16 C13        -0.5512   -0.9476    4.0755 C.2       1 <0>         0.5536
     17 O1         -1.2867   -1.9195    4.0463 O.2       1 <0>        -0.5159
     18 C14        -1.9712   -0.0298    5.8205 C.3       1 <0>         0.0495
     19 C15        -0.9890    2.6137    6.7051 C.ar      1 <0>         0.0811
     20 C16        -2.2880    2.9274    6.3303 C.ar      1 <0>        -0.0487
     21 C17        -3.2285    3.2374    7.2932 C.ar      1 <0>        -0.1504
     22 C18        -2.8770    3.2361    8.6328 C.ar      1 <0>         0.1558
     23 C19        -1.5821    2.9242    9.0107 C.ar      1 <0>        -0.1834
     24 C20        -0.6385    2.6070    8.0504 C.ar      1 <0>         0.1576
     25 F1          0.6238    2.2971    8.4190 F         1 <0>        -0.1119
     26 F2         -3.7991    3.5402    9.5723 F         1 <0>        -0.1178
     27 C21         2.2047   -5.5165    2.3670 C.2       1 <0>         0.5654
     28 O2          2.4401   -5.6537    3.5516 O.2       1 <0>        -0.5322
     29 N4          2.4586   -6.5239    1.5084 N.am      1 <0>        -0.7000
     30 C22         3.0184   -7.7842    2.0028 C.3       1 <0>         0.0781
     31 C23         4.1506   -8.4200    1.1936 C.3       1 <0>        -0.1920
     32 C24         2.7546   -9.0459    1.1785 C.3       1 <0>        -0.1884
     33 H1          0.8113    0.1055    0.1208 H         1 <0>         0.0774
     34 H2         -0.6168   -0.7718   -0.4786 H         1 <0>         0.0711
     35 H3         -0.6092   -0.1062    1.1722 H         1 <0>         0.0668
     36 H4          0.6327   -2.7792   -1.0125 H         1 <0>         0.1324
     37 H5          1.5719   -4.8919   -0.1812 H         1 <0>         0.1252
     38 H6          1.5835   -3.3201    3.8075 H         1 <0>         0.1349
     39 H7          2.2551    0.2748    2.5853 H         1 <0>         0.1488
     40 H8          2.6247    2.8812    3.9434 H         1 <0>         0.2089
     41 H9         -2.8162    0.4864    5.3649 H         1 <0>         0.0793
     42 H10        -2.2283   -1.0769    5.9803 H         1 <0>         0.1073
     43 H11        -1.7336    0.4360    6.7768 H         1 <0>         0.0761
     44 H12        -2.5633    2.9294    5.2859 H         1 <0>         0.1522
     45 H13        -4.2392    3.4814    7.0010 H         1 <0>         0.1596
     46 H14        -1.3099    2.9241   10.0558 H         1 <0>         0.1640
     47 H15         2.2708   -6.4144    0.5631 H         1 <0>         0.4011
     48 H16         3.0536   -7.8896    3.0871 H         1 <0>         0.1394
     49 H17         4.4790   -7.9005    0.2933 H         1 <0>         0.0975
     50 H18         4.9311   -8.9437    1.7455 H         1 <0>         0.1039
     51 H19         2.6166   -9.9815    1.7206 H         1 <0>         0.1052
     52 H20         2.1645   -8.9382    0.2684 H         1 <0>         0.0979
@<TRIPOS>BOND
     1    1    2 1
     2    1   33 1
     3    1   34 1
     4    1   35 1
     5    2    7 ar
     6    2    3 ar
     7    3    4 ar
     8    3   36 1
     9    4    5 ar
    10    4   37 1
    11    5    6 ar
    12    5   27 1
    13    6    7 ar
    14    6   38 1
    15    7    8 1
    16    8   16 1
    17    8    9 2
    18    9   10 1
    19    9   39 1
    20   10   14 2
    21   10   11 1
    22   11   12 2
    23   11   40 1
    24   12   13 1
    25   13   14 1
    26   13   19 1
    27   14   15 1
    28   15   16 am
    29   15   18 1
    30   16   17 2
    31   18   41 1
    32   18   42 1
    33   18   43 1
    34   19   24 ar
    35   19   20 ar
    36   20   21 ar
    37   20   44 1
    38   21   22 ar
    39   21   45 1
    40   22   23 ar
    41   22   26 1
    42   23   24 ar
    43   23   46 1
    44   24   25 1
    45   27   28 2
    46   27   29 am
    47   29   30 1
    48   29   47 1
    49   30   32 1
    50   30   31 1
    51   30   48 1
    52   31   32 1
    53   31   49 1
    54   31   50 1
    55   32   51 1
    56   32   52 1
@<TRIPOS>MOLECULE
CHEMBL571897
   30    32     0     0     0
SMALL
USER_CHARGES

@<TRIPOS>ATOM
      1 C1         -0.0173    1.4248    0.0099 C.3       1 <0>         0.0251
      2 O1          0.0021   -0.0041    0.0020 O.3       1 <0>        -0.3167
      3 C2         -1.2010   -0.6379    0.0101 C.ar      1 <0>         0.1258
      4 C3         -2.3714    0.1196    0.0196 C.ar      1 <0>        -0.1694
      5 C4         -3.5936   -0.5199    0.0262 C.ar      1 <0>        -0.0365
      6 C5         -3.6426   -1.8975    0.0237 C.ar      1 <0>        -0.1479
      7 C6         -2.4786   -2.6981    0.0168 C.ar      1 <0>        -0.0537
      8 C7         -1.2378   -2.0093    0.0031 C.ar      1 <0>        -0.1114
      9 C8         -2.6772   -4.1060    0.0184 C.2       1 <0>        -0.0501
     10 C9         -3.9637   -4.5460    0.0005 C.2       1 <0>        -0.2075
     11 S1         -4.9618   -3.0890    0.0264 S.3       1 <0>         0.1279
     12 C10        -4.3616   -5.9579   -0.0567 C.2       1 <0>         0.6074
     13 O2         -5.2296   -6.3600   -0.8083 O.2       1 <0>        -0.5102
     14 N1         -3.6924   -6.7834    0.7881 N.am      1 <0>        -0.7169
     15 C11        -2.8920   -6.1939    1.8474 C.3       1 <0>         0.1044
     16 C12        -1.4786   -5.8040    1.4152 C.3       1 <0>        -0.1330
     17 C13        -1.5213   -5.0880    0.0647 C.3       1 <0>        -0.0722
     18 H1          1.0053    1.8021    0.0021 H         1 <0>         0.1031
     19 H2         -0.5445    1.7859   -0.8732 H         1 <0>         0.0577
     20 H3         -0.5275    1.7763    0.9067 H         1 <0>         0.0578
     21 H4         -2.3215    1.1984    0.0222 H         1 <0>         0.1432
     22 H5         -4.5074    0.0558    0.0329 H         1 <0>         0.1394
     23 H6         -0.3145   -2.5696   -0.0086 H         1 <0>         0.1368
     24 H7         -3.7477   -7.7465    0.6867 H         1 <0>         0.4106
     25 H8         -3.4018   -5.3024    2.2127 H         1 <0>         0.0753
     26 H9         -2.8197   -6.9090    2.6669 H         1 <0>         0.0873
     27 H10        -1.0420   -5.1410    2.1622 H         1 <0>         0.0832
     28 H11        -0.8662   -6.7017    1.3293 H         1 <0>         0.0785
     29 H12        -1.6436   -5.8249   -0.7292 H         1 <0>         0.0792
     30 H13        -0.5858   -4.5495   -0.0865 H         1 <0>         0.0827
@<TRIPOS>BOND
     1    1    2 1
     2    1   18 1
     3    1   19 1
     4    1   20 1
     5    2    3 1
     6    3    8 ar
     7    3    4 ar
     8    4    5 ar
     9    4   21 1
    10    5    6 ar
    11    5   22 1
    12    6   11 1
    13    6    7 ar
    14    7    8 ar
    15    7    9 1
    16    8   23 1
    17    9   17 1
    18    9   10 2
    19   10   11 1
    20   10   12 1
    21   12   13 2
    22   12   14 am
    23   14   15 1
    24   14   24 1
    25   15   16 1
    26   15   25 1
    27   15   26 1
    28   16   17 1
    29   16   27 1
    30   16   28 1
    31   17   29 1
    32   17   30 1
@<TRIPOS>MOLECULE
CHEMBL225973
   36    39     0     0     0
SMALL
USER_CHARGES

@<TRIPOS>ATOM
      1 C1         -0.0169    1.3933    0.0097 C.ar      1 <0>        -0.1337
      2 C2          1.1807    2.0792    0.0020 C.ar      1 <0>         0.0967
      3 N1          2.3307    1.4333   -0.0125 N.ar      1 <0>        -0.4791
      4 C3          2.3925    0.1158   -0.0202 C.ar      1 <0>         0.1001
      5 C4          1.2426   -0.6474   -0.0133 C.ar      1 <0>        -0.1552
      6 C5          0.0021   -0.0041    0.0020 C.ar      1 <0>        -0.0067
      7 C6         -1.2607   -0.7835    0.0104 C.ar      1 <0>         0.1744
      8 C7         -1.2115   -2.1726    0.0081 C.ar      1 <0>        -0.1449
      9 C8         -2.4110   -2.8912    0.0161 C.ar      1 <0>         0.0439
     10 C9         -3.6138   -2.1730    0.0260 C.ar      1 <0>        -0.1805
     11 C10        -3.5741   -0.7940    0.0276 C.ar      1 <0>         0.1204
     12 N2         -2.4254   -0.1470    0.0254 N.ar      1 <0>        -0.4778
     13 C11        -2.4100   -4.3695    0.0137 C.2       1 <0>         0.0134
     14 C12        -1.3023   -5.1650    0.0098 C.2       1 <0>        -0.0762
     15 C13        -1.7568   -6.4899    0.0088 C.2       1 <0>        -0.2324
     16 C14        -3.1476   -6.4536    0.0104 C.2       1 <0>         0.0803
     17 N3         -3.5285   -5.1752    0.0209 N.pl3     1 <0>        -0.5111
     18 H1         -4.4466   -4.8622    0.0297 H         1 <0>         0.4199
     19 C15        -3.9580   -7.7245    0.0046 C.3       1 <0>        -0.0709
     20 C16        -3.1564   -8.8169   -0.7039 C.3       1 <0>         0.1237
     21 N4         -1.7707   -8.8815   -0.2604 N.am      1 <0>        -0.7359
     22 C17        -1.0372   -7.7755    0.0083 C.2       1 <0>         0.5973
     23 O1          0.1554   -7.8402    0.2380 O.2       1 <0>        -0.5317
     24 H2         -0.9548    1.9285    0.0260 H         1 <0>         0.1470
     25 H3          1.1762    3.1591    0.0074 H         1 <0>         0.1605
     26 H4          3.3558   -0.3724   -0.0323 H         1 <0>         0.1614
     27 H5          1.3005   -1.7258   -0.0200 H         1 <0>         0.1400
     28 H6         -0.2627   -2.6884    0.0000 H         1 <0>         0.1451
     29 H7         -4.5606   -2.6925    0.0320 H         1 <0>         0.1311
     30 H8         -4.4985   -0.2356    0.0352 H         1 <0>         0.1641
     31 H9         -0.2734   -4.8368    0.0073 H         1 <0>         0.1537
     32 H10        -4.1652   -8.0303    1.0301 H         1 <0>         0.0971
     33 H11        -4.8956   -7.5574   -0.5254 H         1 <0>         0.0990
     34 H12        -3.6310   -9.7797   -0.5142 H         1 <0>         0.0950
     35 H13        -3.1732   -8.6250   -1.7767 H         1 <0>         0.0677
     36 H14        -1.3565   -9.7521   -0.1529 H         1 <0>         0.4043
@<TRIPOS>BOND
     1    1    6 ar
     2    1    2 ar
     3    1   24 1
     4    2    3 ar
     5    2   25 1
     6    3    4 ar
     7    4    5 ar
     8    4   26 1
     9    5    6 ar
    10    5   27 1
    11    6    7 1
    12    7   12 ar
    13    7    8 ar
    14    8    9 ar
    15    8   28 1
    16    9   10 ar
    17    9   13 1
    18   10   11 ar
    19   10   29 1
    20   11   12 ar
    21   11   30 1
    22   13   17 1
    23   13   14 2
    24   14   15 1
    25   14   31 1
    26   15   22 1
    27   15   16 2
    28   16   17 1
    29   16   19 1
    30   17   18 1
    31   19   20 1
    32   19   32 1
    33   19   33 1
    34   20   21 1
    35   20   34 1
    36   20   35 1
    37   21   22 am
    38   21   36 1
    39   22   23 2
@<TRIPOS>MOLECULE
CHEMBL403193
   41    44     0     0     0
SMALL
USER_CHARGES

@<TRIPOS>ATOM
      1 C1         -0.0169    1.3976    0.0097 C.ar      1 <0>        -0.0591
      2 C2          1.1518    2.0957    0.0023 C.ar      1 <0>        -0.1223
      3 C3          2.3816    1.4222   -0.0143 C.ar      1 <0>        -0.1090
      4 C4          2.4209    0.0315   -0.0222 C.ar      1 <0>        -0.0543
      5 C5          1.2350   -0.6917   -0.0128 C.ar      1 <0>         0.1039
      6 C6          0.0021   -0.0041    0.0020 C.ar      1 <0>        -0.0894
      7 C7         -1.0206   -0.9864    0.0060 C.2       1 <0>        -0.1211
      8 C8         -0.4206   -2.1935   -0.0002 C.2       1 <0>         0.0310
      9 N1          0.9536   -2.0350   -0.0129 N.pl3     1 <0>        -0.4612
     10 C9          1.8992   -3.1522   -0.0191 C.3       1 <0>         0.1109
     11 C10         1.8967   -3.8431    1.3500 C.3       1 <0>        -0.1239
     12 C11         0.4620   -3.9825    1.8560 C.3       1 <0>         0.1159
     13 N2         -0.4684   -4.4428    0.8370 N.am      1 <0>        -0.7264
     14 C12        -1.0412   -3.5404    0.0033 C.2       1 <0>         0.5901
     15 O1         -1.9990   -3.8160   -0.6938 O.2       1 <0>        -0.5004
     16 C13         2.7074   -3.0078    2.3430 C.3       1 <0>         0.0821
     17 O2          2.8038   -3.7063    3.5859 O.3       1 <0>        -0.5709
     18 C14         3.6415    2.1931   -0.0239 C.2       1 <0>         0.5593
     19 O3          4.7094    1.6123   -0.0383 O.2       1 <0>        -0.4670
     20 N3          3.6072    3.5404   -0.0167 N.am      1 <0>        -0.6182
     21 C15         4.7918    4.2653   -0.0258 C.2       1 <0>         0.2719
     22 N4          6.0271    3.8128   -0.0471 N.2       1 <0>        -0.5227
     23 C16         7.0564    4.6393   -0.0530 C.2       1 <0>         0.0626
     24 C17         6.7809    5.9667   -0.0362 C.2       1 <0>        -0.2434
     25 S1          4.9958    5.9359   -0.0195 S.3       1 <0>         0.1109
     26 H1         -0.9597    1.9242    0.0261 H         1 <0>         0.1366
     27 H2          1.1316    3.1755    0.0089 H         1 <0>         0.1275
     28 H3          3.3700   -0.4838   -0.0359 H         1 <0>         0.1368
     29 H4         -2.0846   -0.8015    0.0128 H         1 <0>         0.1599
     30 H5          1.6082   -3.8688   -0.7872 H         1 <0>         0.0974
     31 H6          2.9002   -2.7784   -0.2344 H         1 <0>         0.1035
     32 H7          2.3461   -4.8319    1.2578 H         1 <0>         0.1065
     33 H8          0.4510   -4.6906    2.6846 H         1 <0>         0.0984
     34 H9          0.1257   -3.0131    2.2239 H         1 <0>         0.0779
     35 H10        -0.6767   -5.3865    0.7546 H         1 <0>         0.4104
     36 H11         3.7071   -2.8376    1.9433 H         1 <0>         0.0554
     37 H12         2.2117   -2.0501    2.5019 H         1 <0>         0.0501
     38 H13         3.3058   -3.2344    4.2644 H         1 <0>         0.3869
     39 H14         2.7551    4.0039   -0.0052 H         1 <0>         0.4264
     40 H15         8.0727    4.2744   -0.0701 H         1 <0>         0.1767
     41 H16         7.4553    6.8102   -0.0366 H         1 <0>         0.2002
@<TRIPOS>BOND
     1    1    6 ar
     2    1    2 ar
     3    1   26 1
     4    2    3 ar
     5    2   27 1
     6    3    4 ar
     7    3   18 1
     8    4    5 ar
     9    4   28 1
    10    5    9 1
    11    5    6 ar
    12    6    7 1
    13    7    8 2
    14    7   29 1
    15    8   14 1
    16    8    9 1
    17    9   10 1
    18   10   11 1
    19   10   30 1
    20   10   31 1
    21   11   12 1
    22   11   16 1
    23   11   32 1
    24   12   13 1
    25   12   33 1
    26   12   34 1
    27   13   14 am
    28   13   35 1
    29   14   15 2
    30   16   17 1
    31   16   36 1
    32   16   37 1
    33   17   38 1
    34   18   19 2
    35   18   20 am
    36   20   21 1
    37   20   39 1
    38   21   25 1
    39   21   22 2
    40   22   23 1
    41   23   24 2
    42   23   40 1
    43   24   25 1
    44   24   41 1
@<TRIPOS>MOLECULE
CHEMBL403193__1
   41    44     0     0     0
SMALL
USER_CHARGES

@<TRIPOS>ATOM
      1 C1         -0.0169    1.3976    0.0097 C.ar      1 <0>        -0.0595
      2 C2          1.1518    2.0957    0.0023 C.ar      1 <0>        -0.1217
      3 C3          2.3816    1.4222   -0.0143 C.ar      1 <0>        -0.1089
      4 C4          2.4209    0.0315   -0.0222 C.ar      1 <0>        -0.0525
      5 C5          1.2350   -0.6917   -0.0128 C.ar      1 <0>         0.1052
      6 C6          0.0021   -0.0041    0.0020 C.ar      1 <0>        -0.0895
      7 C7         -1.0206   -0.9864    0.0060 C.2       1 <0>        -0.1199
      8 C8         -0.4206   -2.1935   -0.0002 C.2       1 <0>         0.0294
      9 N1          0.9536   -2.0350   -0.0129 N.pl3     1 <0>        -0.4606
     10 C9          1.8992   -3.1522   -0.0191 C.3       1 <0>         0.1128
     11 C10         1.8967   -3.8431    1.3500 C.3       1 <0>        -0.1246
     12 C11         0.4620   -3.9825    1.8560 C.3       1 <0>         0.1122
     13 N2         -0.4684   -4.4428    0.8370 N.am      1 <0>        -0.7250
     14 C12        -1.0412   -3.5404    0.0033 C.2       1 <0>         0.5903
     15 O1         -1.9990   -3.8160   -0.6938 O.2       1 <0>        -0.5008
     16 C13         2.5275   -5.2310    1.2206 C.3       1 <0>         0.0829
     17 O2          2.6321   -5.8293    2.5142 O.3       1 <0>        -0.5699
     18 C14         3.6415    2.1931   -0.0239 C.2       1 <0>         0.5594
     19 O3          4.7094    1.6123   -0.0383 O.2       1 <0>        -0.4666
     20 N3          3.6072    3.5404   -0.0167 N.am      1 <0>        -0.6183
     21 C15         4.7918    4.2653   -0.0258 C.2       1 <0>         0.2724
     22 N4          6.0271    3.8128   -0.0471 N.2       1 <0>        -0.5229
     23 C16         7.0564    4.6393   -0.0530 C.2       1 <0>         0.0628
     24 C17         6.7809    5.9667   -0.0362 C.2       1 <0>        -0.2439
     25 S1          4.9958    5.9359   -0.0195 S.3       1 <0>         0.1104
     26 H1         -0.9597    1.9242    0.0261 H         1 <0>         0.1368
     27 H2          1.1316    3.1755    0.0089 H         1 <0>         0.1276
     28 H3          3.3700   -0.4838   -0.0359 H         1 <0>         0.1377
     29 H4         -2.0846   -0.8015    0.0128 H         1 <0>         0.1602
     30 H5          1.6082   -3.8688   -0.7872 H         1 <0>         0.0914
     31 H6          2.9002   -2.7784   -0.2344 H         1 <0>         0.1037
     32 H7          2.4743   -3.2480    2.0574 H         1 <0>         0.1038
     33 H8          0.4510   -4.6906    2.6846 H         1 <0>         0.1018
     34 H9          0.1257   -3.0131    2.2239 H         1 <0>         0.0790
     35 H10        -0.6767   -5.3865    0.7546 H         1 <0>         0.4092
     36 H11         1.9038   -5.8554    0.5809 H         1 <0>         0.0510
     37 H12         3.5209   -5.1391    0.7815 H         1 <0>         0.0542
     38 H13         3.0243   -6.7131    2.5082 H         1 <0>         0.3875
     39 H14         2.7551    4.0039   -0.0052 H         1 <0>         0.4263
     40 H15         8.0727    4.2744   -0.0701 H         1 <0>         0.1767
     41 H16         7.4553    6.8102   -0.0366 H         1 <0>         0.2001
@<TRIPOS>BOND
     1    1    6 ar
     2    1    2 ar
     3    1   26 1
     4    2    3 ar
     5    2   27 1
     6    3    4 ar
     7    3   18 1
     8    4    5 ar
     9    4   28 1
    10    5    9 1
    11    5    6 ar
    12    6    7 1
    13    7    8 2
    14    7   29 1
    15    8   14 1
    16    8    9 1
    17    9   10 1
    18   10   11 1
    19   10   30 1
    20   10   31 1
    21   11   12 1
    22   11   16 1
    23   11   32 1
    24   12   13 1
    25   12   33 1
    26   12   34 1
    27   13   14 am
    28   13   35 1
    29   14   15 2
    30   16   17 1
    31   16   36 1
    32   16   37 1
    33   17   38 1
    34   18   19 2
    35   18   20 am
    36   20   21 1
    37   20   39 1
    38   21   25 1
    39   21   22 2
    40   22   23 1
    41   23   24 2
    42   23   40 1
    43   24   25 1
    44   24   41 1
@<TRIPOS>MOLECULE
CHEMBL409727
   57    61     0     0     0
SMALL
USER_CHARGES

@<TRIPOS>ATOM
      1 C1         -0.0187    1.5258    0.0104 C.3       1 <0>        -0.1686
      2 C2          0.0021   -0.0041    0.0020 C.3       1 <0>         0.1200
      3 C3         -1.4307   -0.5338    0.0188 C.3       1 <0>         0.1052
      4 N1         -2.0840   -0.3474    1.3083 N.am      1 <0>        -0.7285
      5 C4         -1.4232   -0.5167    2.4781 C.2       1 <0>         0.5922
      6 O1         -1.9985   -0.4858    3.5493 O.2       1 <0>        -0.5061
      7 C5          0.0332   -0.7414    2.3835 C.2       1 <0>         0.0128
      8 N2          0.7113   -0.4909    1.1900 N.pl3     1 <0>        -0.4607
      9 C6          2.0234   -0.7734    1.3752 C.ar      1 <0>         0.1159
     10 C7          3.1236   -0.6980    0.5247 C.ar      1 <0>        -0.0519
     11 C8          4.3605   -1.0755    1.0532 C.ar      1 <0>        -0.1072
     12 C9          4.4986   -1.5112    2.3759 C.ar      1 <0>        -0.1281
     13 C10         3.4310   -1.5912    3.2271 C.ar      1 <0>        -0.0490
     14 C11         2.1766   -1.2168    2.7189 C.ar      1 <0>        -0.0991
     15 C12         0.9039   -1.1816    3.3157 C.2       1 <0>        -0.0995
     16 C13         5.5577   -1.0134    0.1902 C.2       1 <0>         0.5663
     17 O2          5.4579   -0.6379   -0.9617 O.2       1 <0>        -0.4989
     18 N3          6.7608   -1.3729    0.6800 N.am      1 <0>        -0.6036
     19 C14         7.8857   -1.3145   -0.1308 C.2       1 <0>         0.2690
     20 N4          9.1335   -1.6246    0.1567 N.2       1 <0>        -0.4983
     21 C15        10.0577   -1.4854   -0.7982 C.2       1 <0>         0.0002
     22 C16         9.6743   -1.0296   -2.0282 C.2       1 <0>        -0.2395
     23 S1          8.0174   -0.8075   -1.8360 S.3       1 <0>         0.2649
     24 C17        11.4664   -1.8173   -0.5295 C.2       1 <0>         0.5935
     25 O3         12.2999   -1.6866   -1.4058 O.2       1 <0>        -0.5348
     26 N5         11.8327   -2.2661    0.6874 N.am      1 <0>        -0.7107
     27 C18        13.2347   -2.5965    0.9548 C.3       1 <0>         0.1441
     28 C19        13.5158   -4.0309    0.5030 C.3       1 <0>        -0.1290
     29 C20        14.9800   -4.3759    0.7823 C.3       1 <0>        -0.1174
     30 C21        15.2566   -4.2501    2.2818 C.3       1 <0>        -0.1225
     31 C22        14.9755   -2.8156    2.7336 C.3       1 <0>        -0.1161
     32 C23        13.5113   -2.4706    2.4543 C.3       1 <0>        -0.1259
     33 H1          1.0039    1.9031    0.0027 H         1 <0>         0.0701
     34 H2         -0.5459    1.8868   -0.8726 H         1 <0>         0.0839
     35 H3         -0.5289    1.8773    0.9072 H         1 <0>         0.0658
     36 H4          0.5107   -0.3563   -0.8954 H         1 <0>         0.1187
     37 H5         -2.0072   -0.0139   -0.7463 H         1 <0>         0.1105
     38 H6         -1.4153   -1.5978   -0.2174 H         1 <0>         0.0778
     39 H7         -3.0202   -0.0943    1.3291 H         1 <0>         0.4115
     40 H8          3.0249   -0.3633   -0.4973 H         1 <0>         0.1471
     41 H9          5.4775   -1.7923    2.7354 H         1 <0>         0.1256
     42 H10         3.5476   -1.9286    4.2464 H         1 <0>         0.1455
     43 H11         0.6669   -1.4559    4.3331 H         1 <0>         0.1628
     44 H12         6.8404   -1.6725    1.5991 H         1 <0>         0.4275
     45 H13        10.2815   -0.8591   -2.9049 H         1 <0>         0.2090
     46 H14        11.1681   -2.3704    1.3862 H         1 <0>         0.4082
     47 H15        13.8805   -1.9099    0.4074 H         1 <0>         0.0890
     48 H16        12.8700   -4.7175    1.0505 H         1 <0>         0.0636
     49 H17        13.3188   -4.1206   -0.5653 H         1 <0>         0.0672
     50 H18        15.1803   -5.3979    0.4604 H         1 <0>         0.0653
     51 H19        15.6259   -3.6894    0.2349 H         1 <0>         0.0649
     52 H20        14.6107   -4.9366    2.8293 H         1 <0>         0.0627
     53 H21        16.2997   -4.4958    2.4808 H         1 <0>         0.0644
     54 H22        15.1725   -2.7259    3.8019 H         1 <0>         0.0678
     55 H23        15.6213   -2.1291    2.1862 H         1 <0>         0.0655
     56 H24        13.3110   -1.4486    2.7762 H         1 <0>         0.0688
     57 H25        12.8654   -3.1571    3.0018 H         1 <0>         0.0684
@<TRIPOS>BOND
     1    1    2 1
     2    1   33 1
     3    1   34 1
     4    1   35 1
     5    2    8 1
     6    2    3 1
     7    2   36 1
     8    3    4 1
     9    3   37 1
    10    3   38 1
    11    4    5 am
    12    4   39 1
    13    5    6 2
    14    5    7 1
    15    7   15 2
    16    7    8 1
    17    8    9 1
    18    9   14 ar
    19    9   10 ar
    20   10   11 ar
    21   10   40 1
    22   11   12 ar
    23   11   16 1
    24   12   13 ar
    25   12   41 1
    26   13   14 ar
    27   13   42 1
    28   14   15 1
    29   15   43 1
    30   16   17 2
    31   16   18 am
    32   18   19 1
    33   18   44 1
    34   19   23 1
    35   19   20 2
    36   20   21 1
    37   21   22 2
    38   21   24 1
    39   22   23 1
    40   22   45 1
    41   24   25 2
    42   24   26 am
    43   26   27 1
    44   26   46 1
    45   27   32 1
    46   27   28 1
    47   27   47 1
    48   28   29 1
    49   28   48 1
    50   28   49 1
    51   29   30 1
    52   29   50 1
    53   29   51 1
    54   30   31 1
    55   30   52 1
    56   30   53 1
    57   31   32 1
    58   31   54 1
    59   31   55 1
    60   32   56 1
    61   32   57 1
@<TRIPOS>MOLECULE
CHEMBL409727__1
   57    61     0     0     0
SMALL
USER_CHARGES

@<TRIPOS>ATOM
      1 C1         -0.0187    1.5258    0.0104 C.3       1 <0>        -0.1686
      2 C2          0.0021   -0.0041    0.0020 C.3       1 <0>         0.1200
      3 C3          0.7222   -0.4976   -1.2516 C.3       1 <0>         0.1052
      4 N1          2.1617   -0.2761   -1.1972 N.am      1 <0>        -0.7285
      5 C4          2.8705   -0.4441   -0.0556 C.2       1 <0>         0.5923
      6 O1          4.0850   -0.3819   -0.0404 O.2       1 <0>        -0.5060
      7 C5          2.0896   -0.7064    1.1700 C.2       1 <0>         0.0129
      8 N2          0.7113   -0.4909    1.1900 N.pl3     1 <0>        -0.4607
      9 C6          0.2465   -0.8036    2.4237 C.ar      1 <0>         0.1158
     10 C7         -1.0312   -0.7684    2.9763 C.ar      1 <0>        -0.0518
     11 C8         -1.1570   -1.1690    4.3088 C.ar      1 <0>        -0.1073
     12 C9         -0.0551   -1.5886    5.0628 C.ar      1 <0>        -0.1280
     13 C10         1.2075   -1.6297    4.5387 C.ar      1 <0>        -0.0491
     14 C11         1.3596   -1.2310    3.2008 C.ar      1 <0>        -0.0990
     15 C12         2.4958   -1.1540    2.3764 C.2       1 <0>        -0.0997
     16 C13        -2.4920   -1.1487    4.9405 C.2       1 <0>         0.5662
     17 O2         -3.4612   -0.7870    4.3019 O.2       1 <0>        -0.4990
     18 N3         -2.6357   -1.5312    6.2249 N.am      1 <0>        -0.6036
     19 C14        -3.8900   -1.5121    6.8184 C.2       1 <0>         0.2689
     20 N4         -4.2318   -1.8389    8.0482 N.2       1 <0>        -0.4983
     21 C15        -5.5178   -1.7386    8.3968 C.2       1 <0>         0.0002
     22 C16        -6.4225   -1.3034    7.4694 C.2       1 <0>        -0.2395
     23 S1         -5.4583   -1.0312    6.1174 S.3       1 <0>         0.2650
     24 C17        -5.9533   -2.0916    9.7579 C.2       1 <0>         0.5935
     25 O3         -7.1266   -1.9970   10.0648 O.2       1 <0>        -0.5348
     26 N5         -5.0521   -2.5195   10.6641 N.am      1 <0>        -0.7107
     27 C18        -5.4855   -2.8708   12.0187 C.3       1 <0>         0.1441
     28 C19        -5.5352   -1.6084   12.8817 C.3       1 <0>        -0.1291
     29 C20        -5.9879   -1.9753   14.2964 C.3       1 <0>        -0.1174
     30 C21        -4.9992   -2.9712   14.9060 C.3       1 <0>        -0.1226
     31 C22        -4.9494   -4.2336   14.0430 C.3       1 <0>        -0.1160
     32 C23        -4.4968   -3.8667   12.6283 C.3       1 <0>        -0.1259
     33 H1          1.0039    1.9031    0.0027 H         1 <0>         0.0658
     34 H2         -0.5459    1.8868   -0.8726 H         1 <0>         0.0839
     35 H3         -0.5289    1.8773    0.9072 H         1 <0>         0.0701
     36 H4         -1.0203   -0.3820    0.0080 H         1 <0>         0.1187
     37 H5          0.5345   -1.5650   -1.3680 H         1 <0>         0.0778
     38 H6          0.3181    0.0252   -2.1184 H         1 <0>         0.1105
     39 H7          2.6259    0.0003   -2.0028 H         1 <0>         0.4115
     40 H8         -1.8863   -0.4456    2.4010 H         1 <0>         0.1471
     41 H9         -0.2063   -1.8886    6.0893 H         1 <0>         0.1256
     42 H10         2.0517   -1.9550    5.1287 H         1 <0>         0.1455
     43 H11         3.5076   -1.4074    2.6569 H         1 <0>         0.1628
     44 H12        -1.8623   -1.8198    6.7344 H         1 <0>         0.4275
     45 H13        -7.4880   -1.1647    7.5783 H         1 <0>         0.2090
     46 H14        -4.1165   -2.5949   10.4193 H         1 <0>         0.4082
     47 H15        -6.4768   -3.3221   11.9774 H         1 <0>         0.0890
     48 H16        -4.5439   -1.1572   12.9229 H         1 <0>         0.0636
     49 H17        -6.2396   -0.8989   12.4474 H         1 <0>         0.0672
     50 H18        -6.0233   -1.0760   14.9112 H         1 <0>         0.0653
     51 H19        -6.9792   -2.4266   14.2551 H         1 <0>         0.0649
     52 H20        -4.0078   -2.5200   14.9473 H         1 <0>         0.0627
     53 H21        -5.3216   -3.2326   15.9139 H         1 <0>         0.0644
     54 H22        -4.2451   -4.9431   14.4773 H         1 <0>         0.0678
     55 H23        -5.9408   -4.6848   14.0017 H         1 <0>         0.0655
     56 H24        -4.4613   -4.7660   12.0134 H         1 <0>         0.0688
     57 H25        -3.5054   -3.4155   12.6695 H         1 <0>         0.0684
@<TRIPOS>BOND
     1    1    2 1
     2    1   33 1
     3    1   34 1
     4    1   35 1
     5    2    8 1
     6    2    3 1
     7    2   36 1
     8    3    4 1
     9    3   37 1
    10    3   38 1
    11    4    5 am
    12    4   39 1
    13    5    6 2
    14    5    7 1
    15    7   15 2
    16    7    8 1
    17    8    9 1
    18    9   14 ar
    19    9   10 ar
    20   10   11 ar
    21   10   40 1
    22   11   12 ar
    23   11   16 1
    24   12   13 ar
    25   12   41 1
    26   13   14 ar
    27   13   42 1
    28   14   15 1
    29   15   43 1
    30   16   17 2
    31   16   18 am
    32   18   19 1
    33   18   44 1
    34   19   23 1
    35   19   20 2
    36   20   21 1
    37   21   22 2
    38   21   24 1
    39   22   23 1
    40   22   45 1
    41   24   25 2
    42   24   26 am
    43   26   27 1
    44   26   46 1
    45   27   32 1
    46   27   28 1
    47   27   47 1
    48   28   29 1
    49   28   48 1
    50   28   49 1
    51   29   30 1
    52   29   50 1
    53   29   51 1
    54   30   31 1
    55   30   52 1
    56   30   53 1
    57   31   32 1
    58   31   54 1
    59   31   55 1
    60   32   56 1
    61   32   57 1
@<TRIPOS>MOLECULE
CHEMBL226403
   42    46     0     0     0
SMALL
USER_CHARGES

@<TRIPOS>ATOM
      1 C1         -0.0164    1.3571    0.0095 C.ar      1 <0>        -0.1174
      2 C2          1.1702    2.0878    0.0021 C.ar      1 <0>        -0.0943
      3 C3          2.3797    1.4639   -0.0133 C.ar      1 <0>        -0.0961
      4 C4          2.4413    0.0595   -0.0214 C.ar      1 <0>         0.1331
      5 C5          1.2329   -0.6819   -0.0134 C.ar      1 <0>        -0.1087
      6 C6          0.0021   -0.0041    0.0020 C.ar      1 <0>        -0.0903
      7 C7          1.2918   -2.0861   -0.0215 C.ar      1 <0>        -0.0086
      8 C8          2.5431   -2.6852   -0.0371 C.ar      1 <0>        -0.1130
      9 C9          3.6944   -1.8819   -0.0442 C.ar      1 <0>         0.1528
     10 N1          3.6183   -0.5753   -0.0361 N.ar      1 <0>        -0.4707
     11 C10         2.6636   -4.1634   -0.0456 C.ar      1 <0>         0.1882
     12 C11         3.9238   -4.7512   -0.0556 C.ar      1 <0>        -0.1517
     13 C12         4.0187   -6.1458   -0.0636 C.ar      1 <0>         0.0469
     14 C13         2.8320   -6.8911   -0.0612 C.ar      1 <0>        -0.1854
     15 C14         1.6219   -6.2296   -0.0511 C.ar      1 <0>         0.1223
     16 N2          1.5672   -4.9121   -0.0383 N.ar      1 <0>        -0.4853
     17 C15         5.3360   -6.8166   -0.0747 C.2       1 <0>         0.0138
     18 C16         6.5480   -6.1914   -0.0724 C.2       1 <0>        -0.0761
     19 C17         7.5216   -7.1982   -0.0851 C.2       1 <0>        -0.2321
     20 C18         6.8572   -8.4206   -0.0967 C.2       1 <0>         0.0792
     21 N3          5.5453   -8.1790   -0.0832 N.pl3     1 <0>        -0.5112
     22 H1          4.8494   -8.8547   -0.0822 H         1 <0>         0.4196
     23 C19         7.6210   -9.7198   -0.1173 C.3       1 <0>        -0.0707
     24 C20         8.9580   -9.4945   -0.8242 C.3       1 <0>         0.1239
     25 N4          9.6455   -8.2944   -0.3678 N.am      1 <0>        -0.7362
     26 C21         8.9938   -7.1415   -0.0858 C.2       1 <0>         0.5971
     27 O1          9.5935   -6.1111    0.1546 O.2       1 <0>        -0.5312
     28 H2         -0.9627    1.8773    0.0259 H         1 <0>         0.1302
     29 H3          1.1294    3.1670    0.0083 H         1 <0>         0.1323
     30 H4          3.2893    2.0460   -0.0196 H         1 <0>         0.1378
     31 H5         -0.9239   -0.5598    0.0082 H         1 <0>         0.1329
     32 H6          0.3903   -2.6808   -0.0153 H         1 <0>         0.1523
     33 H7          4.6660   -2.3533   -0.0564 H         1 <0>         0.1632
     34 H8          4.8145   -4.1403   -0.0574 H         1 <0>         0.1448
     35 H9          2.8647   -7.9705   -0.0675 H         1 <0>         0.1298
     36 H10         0.7046   -6.7997   -0.0496 H         1 <0>         0.1625
     37 H11         6.7232   -5.1257   -0.0632 H         1 <0>         0.1545
     38 H12         7.7999  -10.0547    0.9045 H         1 <0>         0.0968
     39 H13         7.0458  -10.4733   -0.6553 H         1 <0>         0.0986
     40 H14         9.6000  -10.3568   -0.6444 H         1 <0>         0.0946
     41 H15         8.7787   -9.4103   -1.8960 H         1 <0>         0.0676
     42 H16        10.6093   -8.3222   -0.2615 H         1 <0>         0.4041
@<TRIPOS>BOND
     1    1    6 ar
     2    1    2 ar
     3    1   28 1
     4    2    3 ar
     5    2   29 1
     6    3    4 ar
     7    3   30 1
     8    4   10 ar
     9    4    5 ar
    10    5    6 ar
    11    5    7 ar
    12    6   31 1
    13    7    8 ar
    14    7   32 1
    15    8    9 ar
    16    8   11 1
    17    9   10 ar
    18    9   33 1
    19   11   16 ar
    20   11   12 ar
    21   12   13 ar
    22   12   34 1
    23   13   14 ar
    24   13   17 1
    25   14   15 ar
    26   14   35 1
    27   15   16 ar
    28   15   36 1
    29   17   21 1
    30   17   18 2
    31   18   19 1
    32   18   37 1
    33   19   26 1
    34   19   20 2
    35   20   21 1
    36   20   23 1
    37   21   22 1
    38   23   24 1
    39   23   38 1
    40   23   39 1
    41   24   25 1
    42   24   40 1
    43   24   41 1
    44   25   26 am
    45   25   42 1
    46   26   27 2
@<TRIPOS>MOLECULE
CHEMBL374177
   38    41     0     0     0
SMALL
USER_CHARGES

@<TRIPOS>ATOM
      1 C1         -0.0168    1.3899    0.0097 C.ar      1 <0>        -0.0597
      2 C2          1.1685    2.0941    0.0021 C.ar      1 <0>        -0.1516
      3 C3          2.3803    1.4162   -0.0131 C.ar      1 <0>         0.1199
      4 C4          2.4024    0.0279   -0.0207 C.ar      1 <0>        -0.1481
      5 C5          1.2203   -0.6818   -0.0133 C.ar      1 <0>        -0.0807
      6 C6          0.0021   -0.0041    0.0020 C.ar      1 <0>        -0.0647
      7 C7         -1.2711   -0.7644    0.0106 C.ar      1 <0>         0.1852
      8 C8         -1.2425   -2.1549    0.0086 C.ar      1 <0>        -0.1534
      9 C9         -2.4519   -2.8553    0.0173 C.ar      1 <0>         0.0441
     10 C10        -3.6444   -2.1193    0.0275 C.ar      1 <0>        -0.1877
     11 C11        -3.5850   -0.7416    0.0288 C.ar      1 <0>         0.1208
     12 N1         -2.4268   -0.1109    0.0256 N.ar      1 <0>        -0.4840
     13 C12        -2.4726   -4.3334    0.0151 C.2       1 <0>         0.0157
     14 C13        -1.3768   -5.1452    0.0109 C.2       1 <0>        -0.0777
     15 C14        -1.8507   -6.4632    0.0104 C.2       1 <0>        -0.2325
     16 C15        -3.2408   -6.4065    0.0126 C.2       1 <0>         0.0785
     17 N2         -3.6029   -5.1226    0.0230 N.pl3     1 <0>        -0.5113
     18 H1         -4.5163   -4.7961    0.0323 H         1 <0>         0.4197
     19 C16        -4.0698   -7.6653    0.0075 C.3       1 <0>        -0.0706
     20 C17        -3.2847   -8.7696   -0.7010 C.3       1 <0>         0.1238
     21 N3         -1.8999   -8.8545   -0.2581 N.am      1 <0>        -0.7360
     22 C18        -1.1501   -7.7593    0.0098 C.2       1 <0>         0.5975
     23 O1          0.0416   -7.8414    0.2385 O.2       1 <0>        -0.5322
     24 O2          3.5466    2.1128   -0.0209 O.3       1 <0>        -0.4992
     25 H2         -0.9590    1.9177    0.0260 H         1 <0>         0.1406
     26 H3          1.1545    3.1740    0.0077 H         1 <0>         0.1334
     27 H4          3.3464   -0.4966   -0.0329 H         1 <0>         0.1347
     28 H5          1.2381   -1.7617   -0.0196 H         1 <0>         0.1329
     29 H6         -0.3013   -2.6846    0.0002 H         1 <0>         0.1434
     30 H7         -4.5987   -2.6250    0.0341 H         1 <0>         0.1288
     31 H8         -4.5013   -0.1701    0.0367 H         1 <0>         0.1617
     32 H9         -0.3431   -4.8321    0.0082 H         1 <0>         0.1533
     33 H10        -4.2810   -7.9677    1.0332 H         1 <0>         0.0966
     34 H11        -5.0051   -7.4846   -0.5221 H         1 <0>         0.0987
     35 H12        -3.7734   -9.7252   -0.5108 H         1 <0>         0.0946
     36 H13        -3.2992   -8.5778   -1.7739 H         1 <0>         0.0676
     37 H14        -1.4986   -9.7310   -0.1506 H         1 <0>         0.4041
     38 H15         3.8929    2.3100    0.8602 H         1 <0>         0.3940
@<TRIPOS>BOND
     1    1    6 ar
     2    1    2 ar
     3    1   25 1
     4    2    3 ar
     5    2   26 1
     6    3    4 ar
     7    3   24 1
     8    4    5 ar
     9    4   27 1
    10    5    6 ar
    11    5   28 1
    12    6    7 1
    13    7   12 ar
    14    7    8 ar
    15    8    9 ar
    16    8   29 1
    17    9   10 ar
    18    9   13 1
    19   10   11 ar
    20   10   30 1
    21   11   12 ar
    22   11   31 1
    23   13   17 1
    24   13   14 2
    25   14   15 1
    26   14   32 1
    27   15   22 1
    28   15   16 2
    29   16   17 1
    30   16   19 1
    31   17   18 1
    32   19   20 1
    33   19   33 1
    34   19   34 1
    35   20   21 1
    36   20   35 1
    37   20   36 1
    38   21   22 am
    39   21   37 1
    40   22   23 2
    41   24   38 1
@<TRIPOS>MOLECULE
CHEMBL361425
   32    34     0     0     0
SMALL
USER_CHARGES

@<TRIPOS>ATOM
      1 C1         -0.0167    1.3833    0.0096 C.ar      1 <0>        -0.1771
      2 C2          1.1704    2.0880    0.0021 C.ar      1 <0>        -0.0645
      3 C3          2.3825    1.4182   -0.0109 C.ar      1 <0>        -0.1805
      4 C4          2.4076    0.0339   -0.0120 C.ar      1 <0>         0.1582
      5 C5          1.2125   -0.6768   -0.0091 C.ar      1 <0>        -0.1755
      6 C6          0.0021   -0.0041    0.0020 C.ar      1 <0>         0.1441
      7 O1         -1.1645   -0.7011    0.0054 O.3       1 <0>        -0.4960
      8 O2          3.5730   -0.6604   -0.0039 O.3       1 <0>        -0.2977
      9 C7          4.7751    0.0186   -0.3776 C.3       1 <0>         0.1077
     10 C8          5.9696   -0.8432    0.0684 C.3       1 <0>        -0.0715
     11 C9          5.7809   -1.1386    1.5422 C.2       1 <0>         0.2781
     12 C10         5.3166   -0.0437    2.4116 C.2       1 <0>        -0.2555
     13 C11         4.8636    1.1292    1.8569 C.2       1 <0>         0.3097
     14 C12         4.8387    1.3495    0.3758 C.3       1 <0>        -0.1047
     15 C13         3.6565    2.2232   -0.0299 C.3       1 <0>        -0.0709
     16 N1          4.4247    2.1199    2.6779 N.pl3     1 <0>        -0.8261
     17 C14         5.3368   -0.2017    3.8347 C.1       1 <0>         0.2574
     18 N2          5.3528   -0.3271    4.9637 N.1       1 <0>        -0.4404
     19 N3          6.0211   -2.3192    2.0239 N.2       1 <0>        -0.6898
     20 H1         -0.9588    1.9112    0.0260 H         1 <0>         0.1315
     21 H2          1.1537    3.1679    0.0060 H         1 <0>         0.1303
     22 H3          1.2283   -1.7566   -0.0159 H         1 <0>         0.1382
     23 H4         -1.5076   -0.8980   -0.8769 H         1 <0>         0.3956
     24 H5          4.7981    0.1884   -1.4540 H         1 <0>         0.1080
     25 H6          5.9877   -1.7745   -0.4977 H         1 <0>         0.1096
     26 H7          5.7514    1.8699    0.0857 H         1 <0>         0.1309
     27 H8          3.8229    2.6120   -1.0345 H         1 <0>         0.0994
     28 H9          3.5675    3.0564    0.6671 H         1 <0>         0.0844
     29 H10         4.4343    1.9929    3.6395 H         1 <0>         0.4080
     30 H11         4.1018    2.9539    2.3021 H         1 <0>         0.4072
     31 H12         5.8952   -2.4918    2.9701 H         1 <0>         0.3348
     32 H13         6.8999   -0.2963   -0.0846 H         1 <0>         0.1171
@<TRIPOS>BOND
     1    1    6 ar
     2    1    2 ar
     3    1   20 1
     4    2    3 ar
     5    2   21 1
     6    3   15 1
     7    3    4 ar
     8    4    5 ar
     9    4    8 1
    10    5    6 ar
    11    5   22 1
    12    6    7 1
    13    7   23 1
    14    8    9 1
    15    9   14 1
    16    9   10 1
    17    9   24 1
    18   10   11 1
    19   10   25 1
    20   10   32 1
    21   11   12 1
    22   11   19 2
    23   12   13 2
    24   12   17 1
    25   13   14 1
    26   13   16 1
    27   14   15 1
    28   14   26 1
    29   15   27 1
    30   15   28 1
    31   16   29 1
    32   16   30 1
    33   17   18 3
    34   19   31 1
@<TRIPOS>MOLECULE
CHEMBL361425__1
   32    34     0     0     0
SMALL
USER_CHARGES

@<TRIPOS>ATOM
      1 C1         -0.0886    1.1909    0.2051 C.ar      1 <0>        -0.1840
      2 C2          1.0740    1.9322    0.1376 C.ar      1 <0>        -0.0649
      3 C3          2.3056    1.3006    0.0887 C.ar      1 <0>        -0.1839
      4 C4          2.3756   -0.0819    0.1123 C.ar      1 <0>         0.1626
      5 C5          1.2048   -0.8295    0.1753 C.ar      1 <0>        -0.1831
      6 C6         -0.0252   -0.1951    0.2217 C.ar      1 <0>         0.1416
      7 O1         -1.1677   -0.9283    0.2833 O.3       1 <0>        -0.4979
      8 O2          3.5618   -0.7381    0.0872 O.3       1 <0>        -0.3091
      9 C7          4.7286   -0.0354   -0.3499 C.3       1 <0>         0.1910
     10 C8          5.9409   -0.8336    0.1125 C.2       1 <0>        -0.4571
     11 C9          6.0359   -1.0309    1.5735 C.2       1 <0>         0.3389
     12 C10         5.5478    0.0886    2.4195 C.2       1 <0>        -0.2313
     13 C11         4.9463    1.1742    1.8347 C.2       1 <0>         0.3323
     14 C12         4.7803    1.3196    0.3580 C.3       1 <0>        -0.1069
     15 C13         3.5512    2.1441    0.0028 C.3       1 <0>        -0.0701
     16 N1          4.4785    2.1663    2.6393 N.pl3     1 <0>        -0.8282
     17 C14         5.7044    0.0345    3.8419 C.1       1 <0>         0.2558
     18 N2          5.8286   -0.0084    4.9703 N.1       1 <0>        -0.4427
     19 N3          6.5225   -2.1309    2.0936 N.pl3     1 <0>        -0.7980
     20 H1         -1.0458    1.6891    0.2494 H         1 <0>         0.1287
     21 H2          1.0229    3.0109    0.1225 H         1 <0>         0.1273
     22 H3          1.2550   -1.9083    0.1882 H         1 <0>         0.1351
     23 H4         -1.5380   -1.1529   -0.5813 H         1 <0>         0.3939
     24 H5          4.7227    0.0918   -1.4324 H         1 <0>         0.0917
     25 H6          6.6751   -1.2259   -0.5756 H         1 <0>         0.1325
     26 H7          5.6471    1.8599   -0.0225 H         1 <0>         0.1258
     27 H8          3.6564    2.5275   -1.0121 H         1 <0>         0.0953
     28 H9          3.4671    2.9811    0.6959 H         1 <0>         0.0782
     29 H10         4.4667    2.0452    3.6016 H         1 <0>         0.4065
     30 H11         4.1567    2.9948    2.2507 H         1 <0>         0.4089
     31 H12         6.8332   -2.8448    1.5151 H         1 <0>         0.4135
     32 H13         6.5720   -2.2312    3.0572 H         1 <0>         0.3976
@<TRIPOS>BOND
     1    1    6 ar
     2    1    2 ar
     3    1   20 1
     4    2    3 ar
     5    2   21 1
     6    3   15 1
     7    3    4 ar
     8    4    5 ar
     9    4    8 1
    10    5    6 ar
    11    5   22 1
    12    6    7 1
    13    7   23 1
    14    8    9 1
    15    9   14 1
    16    9   10 1
    17    9   24 1
    18   10   11 1
    19   10   25 1
    20   11   12 1
    21   11   19 2
    22   12   13 2
    23   12   17 1
    24   13   14 1
    25   13   16 1
    26   14   15 1
    27   14   26 1
    28   15   27 1
    29   15   28 1
    30   16   29 1
    31   16   30 1
    32   17   18 3
    33   19   31 1
    34   19   32 1
@<TRIPOS>MOLECULE
CHEMBL361425__2
   32    34     0     0     0
SMALL
USER_CHARGES

@<TRIPOS>ATOM
      1 C1         -0.0167    1.3833    0.0096 C.ar      1 <0>        -0.1736
      2 C2          1.1703    2.0881    0.0021 C.ar      1 <0>        -0.0640
      3 C3          2.3825    1.4184   -0.0127 C.ar      1 <0>        -0.1717
      4 C4          2.4071    0.0339   -0.0187 C.ar      1 <0>         0.1504
      5 C5          1.2125   -0.6769   -0.0121 C.ar      1 <0>        -0.1722
      6 C6          0.0021   -0.0041    0.0020 C.ar      1 <0>         0.1435
      7 O1         -1.1645   -0.7010    0.0088 O.3       1 <0>        -0.4956
      8 O2          3.5743   -0.6636   -0.0270 O.3       1 <0>        -0.2982
      9 C7          4.7590    0.0395   -0.4058 C.3       1 <0>         0.1101
     10 C8          5.9911   -0.8160   -0.0924 C.3       1 <0>        -0.0674
     11 C9          7.2117   -0.0422   -0.5467 C.2       1 <0>         0.2734
     12 C10         7.2542    1.4016   -0.2570 C.2       1 <0>        -0.2622
     13 C11         6.1260    2.0472    0.1839 C.2       1 <0>         0.3152
     14 C12         4.8254    1.3370    0.4049 C.3       1 <0>        -0.1031
     15 C13         3.6561    2.2277   -0.0230 C.3       1 <0>        -0.0733
     16 N1          6.1914    3.3827    0.4300 N.pl3     1 <0>        -0.8258
     17 C14         8.4730    2.1318   -0.4358 C.1       1 <0>         0.2560
     18 N2          9.4398    2.7111   -0.5777 N.1       1 <0>        -0.4352
     19 N3          8.1862   -0.6308   -1.1691 N.2       1 <0>        -0.6823
     20 H1         -0.9588    1.9112    0.0260 H         1 <0>         0.1330
     21 H2          1.1535    3.1679    0.0074 H         1 <0>         0.1317
     22 H3          1.2283   -1.7568   -0.0183 H         1 <0>         0.1407
     23 H4         -1.5102   -0.8980   -0.8725 H         1 <0>         0.3963
     24 H5          4.7225    0.2732   -1.4699 H         1 <0>         0.0919
     25 H6          6.0491   -1.0024    0.9799 H         1 <0>         0.1068
     26 H7          4.7173    1.1050    1.4644 H         1 <0>         0.1268
     27 H8          3.8373    2.6080   -1.0283 H         1 <0>         0.0900
     28 H9          3.5620    3.0629    0.6710 H         1 <0>         0.0899
     29 H10         7.0242    3.8608    0.2935 H         1 <0>         0.4096
     30 H11         5.4051    3.8574    0.7422 H         1 <0>         0.4097
     31 H12         8.9599   -0.1191   -1.4526 H         1 <0>         0.3387
     32 H13         5.9313   -1.7620   -0.6306 H         1 <0>         0.1109
@<TRIPOS>BOND
     1    1    6 ar
     2    1    2 ar
     3    1   20 1
     4    2    3 ar
     5    2   21 1
     6    3   15 1
     7    3    4 ar
     8    4    5 ar
     9    4    8 1
    10    5    6 ar
    11    5   22 1
    12    6    7 1
    13    7   23 1
    14    8    9 1
    15    9   14 1
    16    9   10 1
    17    9   24 1
    18   10   11 1
    19   10   25 1
    20   10   32 1
    21   11   12 1
    22   11   19 2
    23   12   13 2
    24   12   17 1
    25   13   14 1
    26   13   16 1
    27   14   15 1
    28   14   26 1
    29   15   27 1
    30   15   28 1
    31   16   29 1
    32   16   30 1
    33   17   18 3
    34   19   31 1
@<TRIPOS>MOLECULE
CHEMBL361425__3
   32    34     0     0     0
SMALL
USER_CHARGES

@<TRIPOS>ATOM
      1 C1         -0.0167    1.3833    0.0096 C.ar      1 <0>        -0.1782
      2 C2          1.1703    2.0882    0.0021 C.ar      1 <0>        -0.0647
      3 C3          2.3825    1.4186   -0.0136 C.ar      1 <0>        -0.1734
      4 C4          2.4070    0.0339   -0.0213 C.ar      1 <0>         0.1538
      5 C5          1.2125   -0.6769   -0.0127 C.ar      1 <0>        -0.1762
      6 C6          0.0021   -0.0041    0.0020 C.ar      1 <0>         0.1417
      7 O1         -1.1645   -0.7011    0.0094 O.3       1 <0>        -0.4965
      8 O2          3.5745   -0.6668   -0.0377 O.3       1 <0>        -0.2959
      9 C7          4.7477    0.0451   -0.4297 C.3       1 <0>         0.1948
     10 C8          5.9864   -0.7759   -0.1416 C.2       1 <0>        -0.4260
     11 C9          7.2694   -0.0849   -0.3915 C.2       1 <0>         0.3031
     12 C10         7.2887    1.3751   -0.1174 C.2       1 <0>        -0.2256
     13 C11         6.1326    2.0239    0.2330 C.2       1 <0>         0.3243
     14 C12         4.8196    1.3319    0.3989 C.3       1 <0>        -0.1094
     15 C13         3.6561    2.2307   -0.0214 C.3       1 <0>        -0.0728
     16 N1          6.1843    3.3674    0.4398 N.pl3     1 <0>        -0.8291
     17 C14         8.5162    2.1057   -0.2189 C.1       1 <0>         0.2557
     18 N2          9.4899    2.6852   -0.2994 N.1       1 <0>        -0.4401
     19 N3          8.3274   -0.7228   -0.8285 N.pl3     1 <0>        -0.8037
     20 H1         -0.9588    1.9112    0.0260 H         1 <0>         0.1311
     21 H2          1.1534    3.1680    0.0081 H         1 <0>         0.1299
     22 H3          1.2284   -1.7568   -0.0186 H         1 <0>         0.1387
     23 H4         -1.5106   -0.8980   -0.8718 H         1 <0>         0.3948
     24 H5          4.6911    0.2925   -1.4898 H         1 <0>         0.0696
     25 H6          5.9365   -1.7922    0.2205 H         1 <0>         0.1340
     26 H7          4.6872    1.0790    1.4508 H         1 <0>         0.1203
     27 H8          3.8370    2.6162   -1.0248 H         1 <0>         0.0868
     28 H9          3.5642    3.0606    0.6792 H         1 <0>         0.0848
     29 H10         7.0243    3.8418    0.3385 H         1 <0>         0.4071
     30 H11         5.3811    3.8511    0.6886 H         1 <0>         0.4102
     31 H12         8.2829   -1.6769   -0.9978 H         1 <0>         0.4127
     32 H13         9.1550   -0.2409   -0.9828 H         1 <0>         0.3985
@<TRIPOS>BOND
     1    1    6 ar
     2    1    2 ar
     3    1   20 1
     4    2    3 ar
     5    2   21 1
     6    3   15 1
     7    3    4 ar
     8    4    5 ar
     9    4    8 1
    10    5    6 ar
    11    5   22 1
    12    6    7 1
    13    7   23 1
    14    8    9 1
    15    9   14 1
    16    9   10 1
    17    9   24 1
    18   10   11 1
    19   10   25 1
    20   11   12 1
    21   11   19 2
    22   12   13 2
    23   12   17 1
    24   13   14 1
    25   13   16 1
    26   14   15 1
    27   14   26 1
    28   15   27 1
    29   15   28 1
    30   16   29 1
    31   16   30 1
    32   17   18 3
    33   19   31 1
    34   19   32 1
@<TRIPOS>MOLECULE
CHEMBL361425__4
   32    34     0     0     0
SMALL
USER_CHARGES

@<TRIPOS>ATOM
      1 C1         -0.0167    1.3833    0.0096 C.ar      1 <0>        -0.1724
      2 C2          1.1703    2.0881    0.0021 C.ar      1 <0>        -0.0641
      3 C3          2.3825    1.4185   -0.0144 C.ar      1 <0>        -0.1700
      4 C4          2.4071    0.0339   -0.0234 C.ar      1 <0>         0.1487
      5 C5          1.2125   -0.6769   -0.0135 C.ar      1 <0>        -0.1736
      6 C6          0.0021   -0.0041    0.0020 C.ar      1 <0>         0.1430
      7 O1         -1.1645   -0.7011    0.0102 O.3       1 <0>        -0.4957
      8 O2          3.5741   -0.6635   -0.0457 O.3       1 <0>        -0.3019
      9 C7          4.7662    0.0358    0.3168 C.3       1 <0>         0.1116
     10 C8          5.9917   -0.8164   -0.0300 C.3       1 <0>        -0.1262
     11 C9          7.2212   -0.0472    0.4079 C.2       1 <0>         0.2721
     12 C10         7.2581    1.3996    0.1324 C.2       1 <0>        -0.1927
     13 C11         6.1216    2.0494   -0.2800 C.2       1 <0>         0.3017
     14 C12         4.8166    1.3416   -0.4815 C.3       1 <0>        -0.0999
     15 C13         3.6561    2.2276   -0.0207 C.3       1 <0>        -0.0739
     16 N1          6.1824    3.3873   -0.5143 N.pl3     1 <0>        -0.8264
     17 C14         8.4803    2.1280    0.2945 C.1       1 <0>         0.2761
     18 N2          9.4498    2.7059    0.4231 N.1       1 <0>        -0.4420
     19 N3          8.2078   -0.6421    1.0046 N.2       1 <0>        -0.6826
     20 H1         -0.9588    1.9112    0.0260 H         1 <0>         0.1333
     21 H2          1.1535    3.1679    0.0087 H         1 <0>         0.1324
     22 H3          1.2283   -1.7568   -0.0189 H         1 <0>         0.1395
     23 H4         -1.5112   -0.8980   -0.8707 H         1 <0>         0.3961
     24 H5          4.7510    0.2584    1.3837 H         1 <0>         0.0911
     25 H6          5.9426   -1.7679    0.4993 H         1 <0>         0.0984
     26 H7          4.6874    1.1206   -1.5411 H         1 <0>         0.1246
     27 H8          3.5483    3.0703   -0.7037 H         1 <0>         0.0909
     28 H9          3.8573    2.5972    0.9849 H         1 <0>         0.0913
     29 H10         7.0178    3.8641   -0.3894 H         1 <0>         0.4107
     30 H11         5.3903    3.8650   -0.8064 H         1 <0>         0.4096
     31 H12         8.1661   -1.5957    1.1774 H         1 <0>         0.3441
     32 H13         6.0283   -0.9916   -1.1052 H         1 <0>         0.1064
@<TRIPOS>BOND
     1    1    6 ar
     2    1    2 ar
     3    1   20 1
     4    2    3 ar
     5    2   21 1
     6    3   15 1
     7    3    4 ar
     8    4    5 ar
     9    4    8 1
    10    5    6 ar
    11    5   22 1
    12    6    7 1
    13    7   23 1
    14    8    9 1
    15    9   14 1
    16    9   10 1
    17    9   24 1
    18   10   11 1
    19   10   25 1
    20   10   32 1
    21   11   12 1
    22   11   19 2
    23   12   13 2
    24   12   17 1
    25   13   14 1
    26   13   16 1
    27   14   15 1
    28   14   26 1
    29   15   27 1
    30   15   28 1
    31   16   29 1
    32   16   30 1
    33   17   18 3
    34   19   31 1
@<TRIPOS>MOLECULE
CHEMBL361425__5
   32    34     0     0     0
SMALL
USER_CHARGES

@<TRIPOS>ATOM
      1 C1         -0.0167    1.3833    0.0096 C.ar      1 <0>        -0.1774
      2 C2          1.1703    2.0882    0.0021 C.ar      1 <0>        -0.0652
      3 C3          2.3825    1.4186   -0.0135 C.ar      1 <0>        -0.1725
      4 C4          2.4070    0.0339   -0.0211 C.ar      1 <0>         0.1535
      5 C5          1.2125   -0.6769   -0.0136 C.ar      1 <0>        -0.1768
      6 C6          0.0021   -0.0041    0.0020 C.ar      1 <0>         0.1417
      7 O1         -1.1645   -0.7011    0.0094 O.3       1 <0>        -0.4966
      8 O2          3.5745   -0.6668   -0.0354 O.3       1 <0>        -0.2961
      9 C7          4.7554    0.0410    0.3409 C.3       1 <0>         0.1946
     10 C8          5.9880   -0.7768    0.0194 C.2       1 <0>        -0.4259
     11 C9          7.2758   -0.0883    0.2512 C.2       1 <0>         0.3031
     12 C10         7.2898    1.3745   -0.0075 C.2       1 <0>        -0.2253
     13 C11         6.1269    2.0270   -0.3271 C.2       1 <0>         0.3239
     14 C12         4.8109    1.3366   -0.4751 C.3       1 <0>        -0.1088
     15 C13         3.6561    2.2307   -0.0222 C.3       1 <0>        -0.0732
     16 N1          6.1745    3.3729   -0.5196 N.pl3     1 <0>        -0.8292
     17 C14         8.5191    2.1041    0.0774 C.1       1 <0>         0.2556
     18 N2          9.4943    2.6828    0.1447 N.1       1 <0>        -0.4400
     19 N3          8.3419   -0.7306    0.6610 N.pl3     1 <0>        -0.8037
     20 H1         -0.9588    1.9112    0.0260 H         1 <0>         0.1312
     21 H2          1.1534    3.1680    0.0080 H         1 <0>         0.1300
     22 H3          1.2284   -1.7568   -0.0197 H         1 <0>         0.1386
     23 H4         -1.5106   -0.8980   -0.8718 H         1 <0>         0.3947
     24 H5          4.7199    0.2769    1.4044 H         1 <0>         0.0696
     25 H6          5.9309   -1.7893   -0.3518 H         1 <0>         0.1339
     26 H7          4.6576    1.0950   -1.5269 H         1 <0>         0.1201
     27 H8          3.5504    3.0681   -0.7120 H         1 <0>         0.0848
     28 H9          3.8570    2.6055    0.9814 H         1 <0>         0.0871
     29 H10         7.0164    3.8462   -0.4299 H         1 <0>         0.4071
     30 H11         5.3665    3.8592   -0.7465 H         1 <0>         0.4101
     31 H12         8.3006   -1.6864    0.8215 H         1 <0>         0.4127
     32 H13         9.1725   -0.2503    0.8040 H         1 <0>         0.3985
@<TRIPOS>BOND
     1    1    6 ar
     2    1    2 ar
     3    1   20 1
     4    2    3 ar
     5    2   21 1
     6    3   15 1
     7    3    4 ar
     8    4    5 ar
     9    4    8 1
    10    5    6 ar
    11    5   22 1
    12    6    7 1
    13    7   23 1
    14    8    9 1
    15    9   14 1
    16    9   10 1
    17    9   24 1
    18   10   11 1
    19   10   25 1
    20   11   12 1
    21   11   19 2
    22   12   13 2
    23   12   17 1
    24   13   14 1
    25   13   16 1
    26   14   15 1
    27   14   26 1
    28   15   27 1
    29   15   28 1
    30   16   29 1
    31   16   30 1
    32   17   18 3
    33   19   31 1
    34   19   32 1
@<TRIPOS>MOLECULE
CHEMBL361425__6
   32    34     0     0     0
SMALL
USER_CHARGES

@<TRIPOS>ATOM
      1 C1         -0.0167    1.3833    0.0096 C.ar      1 <0>        -0.1736
      2 C2          1.1699    2.0885    0.0021 C.ar      1 <0>        -0.0635
      3 C3          2.3833    1.4196   -0.0109 C.ar      1 <0>        -0.1705
      4 C4          2.4069    0.0353   -0.0124 C.ar      1 <0>         0.1481
      5 C5          1.2130   -0.6764   -0.0102 C.ar      1 <0>        -0.1723
      6 C6          0.0021   -0.0041    0.0020 C.ar      1 <0>         0.1430
      7 O1         -1.1644   -0.7014    0.0070 O.3       1 <0>        -0.4960
      8 O2          3.5751   -0.6556   -0.0035 O.3       1 <0>        -0.2917
      9 C7          4.7776    0.0270   -0.3267 C.3       1 <0>         0.1087
     10 C8          4.8768    0.2843   -1.8328 C.3       1 <0>        -0.1028
     11 C9          6.2492    0.8748   -2.0931 C.2       1 <0>         0.2728
     12 C10         6.7659    1.8605   -1.1281 C.2       1 <0>        -0.2609
     13 C11         6.1131    2.0853    0.0574 C.2       1 <0>         0.3100
     14 C12         4.8401    1.3634    0.4166 C.3       1 <0>        -0.0954
     15 C13         3.6544    2.2266   -0.0296 C.3       1 <0>        -0.0696
     16 N1          6.6300    2.9866    0.9342 N.pl3     1 <0>        -0.8236
     17 C14         7.9604    2.5904   -1.4299 C.1       1 <0>         0.2543
     18 N2          8.9080    3.1694   -1.6694 N.1       1 <0>        -0.4350
     19 N3          6.9446    0.5240   -3.1308 N.2       1 <0>        -0.6839
     20 H1         -0.9589    1.9110    0.0260 H         1 <0>         0.1325
     21 H2          1.1524    3.1683    0.0067 H         1 <0>         0.1315
     22 H3          1.2295   -1.7562   -0.0178 H         1 <0>         0.1399
     23 H4         -1.5086   -0.8984   -0.8749 H         1 <0>         0.3961
     24 H5          5.6260   -0.5868   -0.0243 H         1 <0>         0.1300
     25 H6          4.7658   -0.6529   -2.3781 H         1 <0>         0.1098
     26 H7          4.8014    1.1921    1.4923 H         1 <0>         0.1185
     27 H8          3.8346    2.5924   -1.0404 H         1 <0>         0.0934
     28 H9          3.5523    3.0761    0.6457 H         1 <0>         0.0911
     29 H10         7.4486    3.4596    0.7174 H         1 <0>         0.4096
     30 H11         6.1802    3.1566    1.7766 H         1 <0>         0.4113
     31 H12         7.8207    0.9122   -3.2815 H         1 <0>         0.3376
     32 H13         4.1044    0.9888   -2.1412 H         1 <0>         0.1004
@<TRIPOS>BOND
     1    1    6 ar
     2    1    2 ar
     3    1   20 1
     4    2    3 ar
     5    2   21 1
     6    3   15 1
     7    3    4 ar
     8    4    5 ar
     9    4    8 1
    10    5    6 ar
    11    5   22 1
    12    6    7 1
    13    7   23 1
    14    8    9 1
    15    9   14 1
    16    9   10 1
    17    9   24 1
    18   10   11 1
    19   10   25 1
    20   10   32 1
    21   11   12 1
    22   11   19 2
    23   12   13 2
    24   12   17 1
    25   13   14 1
    26   13   16 1
    27   14   15 1
    28   14   26 1
    29   15   27 1
    30   15   28 1
    31   16   29 1
    32   16   30 1
    33   17   18 3
    34   19   31 1
@<TRIPOS>MOLECULE
CHEMBL361425__7
   32    34     0     0     0
SMALL
USER_CHARGES

@<TRIPOS>ATOM
      1 C1         -0.0167    1.3830    0.0096 C.ar      1 <0>        -0.1792
      2 C2          1.1693    2.0896    0.0021 C.ar      1 <0>        -0.0670
      3 C3          2.3825    1.4192   -0.0085 C.ar      1 <0>        -0.1630
      4 C4          2.4055    0.0352   -0.0070 C.ar      1 <0>         0.1603
      5 C5          1.2122   -0.6773   -0.0077 C.ar      1 <0>        -0.1783
      6 C6          0.0021   -0.0041    0.0020 C.ar      1 <0>         0.1385
      7 O1         -1.1647   -0.7008    0.0041 O.3       1 <0>        -0.4974
      8 O2          3.5729   -0.6553    0.0123 O.3       1 <0>        -0.2951
      9 C7          4.7835    0.0181   -0.2723 C.3       1 <0>         0.1896
     10 C8          4.9640    0.2476   -1.7562 C.2       1 <0>        -0.4482
     11 C9          6.2281    0.9250   -2.1235 C.2       1 <0>         0.2959
     12 C10         6.7447    1.9071   -1.1357 C.2       1 <0>        -0.2219
     13 C11         6.1064    2.0943    0.0605 C.2       1 <0>         0.3152
     14 C12         4.8396    1.3714    0.4390 C.3       1 <0>        -0.0989
     15 C13         3.6539    2.2245   -0.0283 C.3       1 <0>        -0.0582
     16 N1          6.6407    2.9745    0.9495 N.pl3     1 <0>        -0.8279
     17 C14         7.9219    2.6645   -1.4377 C.1       1 <0>         0.2536
     18 N2          8.8557    3.2654   -1.6772 N.1       1 <0>        -0.4403
     19 N3          6.8515    0.6747   -3.2486 N.pl3     1 <0>        -0.8056
     20 H1         -0.9592    1.9102    0.0260 H         1 <0>         0.1293
     21 H2          1.1518    3.1694    0.0048 H         1 <0>         0.1285
     22 H3          1.2286   -1.7572   -0.0156 H         1 <0>         0.1368
     23 H4         -1.5068   -0.8977   -0.8787 H         1 <0>         0.3937
     24 H5          5.6149   -0.5946    0.0762 H         1 <0>         0.1057
     25 H6          4.2310   -0.0580   -2.4881 H         1 <0>         0.1282
     26 H7          4.8026    1.2260    1.5186 H         1 <0>         0.1059
     27 H8          3.8413    2.5754   -1.0430 H         1 <0>         0.0930
     28 H9          3.5458    3.0833    0.6342 H         1 <0>         0.0795
     29 H10         7.4556    3.4522    0.7289 H         1 <0>         0.4068
     30 H11         6.2068    3.1245    1.8040 H         1 <0>         0.4115
     31 H12         6.4861    0.0273   -3.8719 H         1 <0>         0.4120
     32 H13         7.6782    1.1367   -3.4583 H         1 <0>         0.3972
@<TRIPOS>BOND
     1    1    6 ar
     2    1    2 ar
     3    1   20 1
     4    2    3 ar
     5    2   21 1
     6    3   15 1
     7    3    4 ar
     8    4    5 ar
     9    4    8 1
    10    5    6 ar
    11    5   22 1
    12    6    7 1
    13    7   23 1
    14    8    9 1
    15    9   14 1
    16    9   10 1
    17    9   24 1
    18   10   11 1
    19   10   25 1
    20   11   12 1
    21   11   19 2
    22   12   13 2
    23   12   17 1
    24   13   14 1
    25   13   16 1
    26   14   15 1
    27   14   26 1
    28   15   27 1
    29   15   28 1
    30   16   29 1
    31   16   30 1
    32   17   18 3
    33   19   31 1
    34   19   32 1
@<TRIPOS>MOLECULE
CHEMBL561334
   33    36     0     0     0
SMALL
USER_CHARGES

@<TRIPOS>ATOM
      1 C1         -0.0187    1.5258    0.0104 C.3       1 <0>        -0.1634
      2 C2          0.0021   -0.0041    0.0020 C.3       1 <0>         0.1105
      3 H1         -1.0258   -0.3668    0.0099 H         1 <0>         0.0761
      4 C3          0.6717   -0.4727   -1.2698 C.3       1 <0>         0.1105
      5 N1          0.4740   -1.8796   -1.5213 N.pl3     1 <0>        -0.7325
      6 C4          1.0805   -2.8882   -0.7644 C.2       1 <0>         0.2485
      7 C5          1.3934   -4.1406   -1.3594 C.ar      1 <0>        -0.1252
      8 C6          1.1642   -4.5495   -2.7614 C.ar      1 <0>        -0.0474
      9 C7          0.5754   -3.6651   -3.6737 C.ar      1 <0>        -0.0855
     10 C8          0.3895   -4.0969   -4.9602 C.ar      1 <0>        -0.1557
     11 C9          0.7849   -5.3808   -5.3207 C.ar      1 <0>         0.1186
     12 N2          1.3348   -6.2019   -4.4580 N.ar      1 <0>        -0.4597
     13 C10         1.5400   -5.8398   -3.1866 C.ar      1 <0>         0.1260
     14 C11         2.1279   -6.7420   -2.2734 C.ar      1 <0>        -0.0512
     15 C12         2.3394   -6.3700   -0.9860 C.ar      1 <0>        -0.0650
     16 C13         1.9897   -5.1034   -0.5313 C.ar      1 <0>        -0.0932
     17 S1          2.1240   -4.2814    1.0354 S.3       1 <0>         0.1929
     18 C14         1.4028   -2.7175    0.5720 C.2       1 <0>        -0.2905
     19 C15         1.2409   -1.6225    1.4203 C.2       1 <0>         0.6030
     20 O1          1.7083   -1.7610    2.5362 O.2       1 <0>        -0.5678
     21 N3          0.6639   -0.4641    1.1981 N.am      1 <0>        -0.6967
     22 H2          1.0039    1.9031    0.0027 H         1 <0>         0.0686
     23 H3         -0.5459    1.8868   -0.8726 H         1 <0>         0.0786
     24 H4         -0.5289    1.8773    0.9072 H         1 <0>         0.0704
     25 H5          0.2685    0.0943   -2.1088 H         1 <0>         0.1046
     26 H6          1.7413   -0.2756   -1.1970 H         1 <0>         0.0730
     27 H7         -0.1090   -2.1394   -2.2518 H         1 <0>         0.4012
     28 H8          0.2764   -2.6723   -3.3716 H         1 <0>         0.1424
     29 H9         -0.0625   -3.4433   -5.6916 H         1 <0>         0.1426
     30 H10         0.6348   -5.7107   -6.3380 H         1 <0>         0.1640
     31 H11         2.4099   -7.7317   -2.6008 H         1 <0>         0.1511
     32 H12         2.7891   -7.0724   -0.2999 H         1 <0>         0.1459
     33 H13         0.6838    0.1640    1.9370 H         1 <0>         0.4052
@<TRIPOS>BOND
     1    1    2 1
     2    1   22 1
     3    1   23 1
     4    1   24 1
     5    2    3 1
     6    2   21 1
     7    2    4 1
     8    4    5 1
     9    4   25 1
    10    4   26 1
    11    5    6 1
    12    5   27 1
    13    6   18 2
    14    6    7 1
    15    7   16 ar
    16    7    8 ar
    17    8   13 ar
    18    8    9 ar
    19    9   10 ar
    20    9   28 1
    21   10   11 ar
    22   10   29 1
    23   11   12 ar
    24   11   30 1
    25   12   13 ar
    26   13   14 ar
    27   14   15 ar
    28   14   31 1
    29   15   16 ar
    30   15   32 1
    31   16   17 1
    32   17   18 1
    33   18   19 1
    34   19   20 2
    35   19   21 am
    36   21   33 1
@<TRIPOS>MOLECULE
CHEMBL226232
   27    29     0     0     0
SMALL
USER_CHARGES

@<TRIPOS>ATOM
      1 C1         -0.0169    1.3961    0.0097 C.ar      1 <0>        -0.1603
      2 C2          1.1793    2.0813    0.0020 C.ar      1 <0>         0.1341
      3 N1          2.3305    1.4359   -0.0129 N.ar      1 <0>        -0.4842
      4 C3          2.3941    0.1166   -0.0206 C.ar      1 <0>         0.1876
      5 C4          1.2449   -0.6479   -0.0138 C.ar      1 <0>        -0.1688
      6 C5          0.0021   -0.0041    0.0020 C.ar      1 <0>         0.0543
      7 C6         -1.2556   -0.7808    0.0103 C.2       1 <0>         0.0107
      8 C7         -2.5148   -0.2572    0.0197 C.2       1 <0>        -0.0709
      9 C8         -3.4024   -1.3406    0.0244 C.2       1 <0>        -0.2334
     10 C9         -2.6400   -2.5044    0.0195 C.2       1 <0>         0.0834
     11 N2         -1.3524   -2.1559    0.0039 N.pl3     1 <0>        -0.5116
     12 H1         -0.6034   -2.7721   -0.0075 H         1 <0>         0.4204
     13 C10        -3.2946   -3.8620    0.0278 C.3       1 <0>        -0.0717
     14 C11        -4.6423   -3.7551    0.7420 C.3       1 <0>         0.1236
     15 N3         -5.4280   -2.6105    0.3021 N.am      1 <0>        -0.7358
     16 C12        -4.8744   -1.4049    0.0312 C.2       1 <0>         0.5976
     17 O1         -5.5577   -0.4244   -0.1946 O.2       1 <0>        -0.5317
     18 Cl1         3.9435   -0.6661   -0.0402 Cl        1 <0>        -0.0263
     19 H2         -0.9548    1.9313    0.0260 H         1 <0>         0.1511
     20 H3          1.1744    3.1613    0.0078 H         1 <0>         0.1730
     21 H4          1.3037   -1.7263   -0.0209 H         1 <0>         0.1377
     22 H5         -2.7769    0.7905    0.0231 H         1 <0>         0.1560
     23 H6         -3.4500   -4.1990   -0.9971 H         1 <0>         0.0977
     24 H7         -2.6570   -4.5717    0.5550 H         1 <0>         0.0995
     25 H8         -5.2122   -4.6652    0.5546 H         1 <0>         0.0952
     26 H9         -4.4657   -3.6686    1.8141 H         1 <0>         0.0680
     27 H10        -6.3867   -2.7162    0.1986 H         1 <0>         0.4045
@<TRIPOS>BOND
     1    1    6 ar
     2    1    2 ar
     3    1   19 1
     4    2    3 ar
     5    2   20 1
     6    3    4 ar
     7    4    5 ar
     8    4   18 1
     9    5    6 ar
    10    5   21 1
    11    6    7 1
    12    7   11 1
    13    7    8 2
    14    8    9 1
    15    8   22 1
    16    9   16 1
    17    9   10 2
    18   10   11 1
    19   10   13 1
    20   11   12 1
    21   13   14 1
    22   13   23 1
    23   13   24 1
    24   14   15 1
    25   14   25 1
    26   14   26 1
    27   15   16 am
    28   15   27 1
    29   16   17 2
@<TRIPOS>MOLECULE
CHEMBL510545
   41    44     0     0     0
SMALL
USER_CHARGES

@<TRIPOS>ATOM
      1 C1         -0.0167    1.3796    0.0096 C.ar      1 <0>        -0.1143
      2 C2          1.1681    2.0945    0.0022 C.ar      1 <0>        -0.1215
      3 C3          2.3774    1.4316   -0.0134 C.ar      1 <0>        -0.1009
      4 C4          2.4043    0.0344   -0.0211 C.ar      1 <0>        -0.0690
      5 C5          1.2038   -0.6807   -0.0130 C.ar      1 <0>        -0.1082
      6 C6          0.0021   -0.0041    0.0020 C.ar      1 <0>        -0.1205
      7 C7          3.6925   -0.6813   -0.0381 C.2       1 <0>        -0.0544
      8 C8          3.7145   -2.0239   -0.0455 C.2       1 <0>        -0.1290
      9 C9          5.0024   -2.7395   -0.0626 C.ar      1 <0>         0.1741
     10 C10         5.0179   -4.1338   -0.0760 C.ar      1 <0>        -0.1502
     11 C11         6.2487   -4.7944   -0.0925 C.ar      1 <0>         0.0414
     12 C12         7.4176   -4.0206   -0.0949 C.ar      1 <0>        -0.1897
     13 C13         7.3159   -2.6449   -0.0810 C.ar      1 <0>         0.1193
     14 N1          6.1399   -2.0494   -0.0706 N.ar      1 <0>        -0.4875
     15 C14         6.3167   -6.2711   -0.1067 C.2       1 <0>         0.0166
     16 C15         5.2474   -7.1175   -0.1112 C.2       1 <0>        -0.0784
     17 C16         5.7633   -8.4196   -0.1253 C.2       1 <0>        -0.2327
     18 C17         7.1508   -8.3184   -0.1271 C.2       1 <0>         0.0773
     19 N2          7.4716   -7.0235   -0.1234 N.pl3     1 <0>        -0.5116
     20 H1          8.3741   -6.6679   -0.1293 H         1 <0>         0.4195
     21 C18         8.0197   -9.5500   -0.1361 C.3       1 <0>        -0.0704
     22 C19         7.2707  -10.6867    0.5604 C.3       1 <0>         0.1240
     23 N3          5.8891  -10.8109    0.1169 N.am      1 <0>        -0.7362
     24 C20         5.1045   -9.7374   -0.1390 C.2       1 <0>         0.5975
     25 O1          3.9159   -9.8550   -0.3682 O.2       1 <0>        -0.5324
     26 H2         -0.9606    1.9041    0.0260 H         1 <0>         0.1232
     27 H3          1.1458    3.1743    0.0081 H         1 <0>         0.1248
     28 H4          3.3013    1.9908   -0.0199 H         1 <0>         0.1263
     29 H5          1.2169   -1.7606   -0.0192 H         1 <0>         0.1264
     30 H6         -0.9266   -0.5554    0.0079 H         1 <0>         0.1248
     31 H7          4.6187   -0.1260   -0.0447 H         1 <0>         0.1354
     32 H8          2.7883   -2.5792   -0.0389 H         1 <0>         0.1328
     33 H9          4.0942   -4.6934   -0.0732 H         1 <0>         0.1425
     34 H10         8.3871   -4.4962   -0.1072 H         1 <0>         0.1271
     35 H11         8.2145   -2.0458   -0.0828 H         1 <0>         0.1597
     36 H12         4.2043   -6.8377   -0.1048 H         1 <0>         0.1537
     37 H13         8.2399   -9.8342   -1.1651 H         1 <0>         0.0964
     38 H14         8.9490   -9.3453    0.3954 H         1 <0>         0.0984
     39 H15         7.7896  -11.6240    0.3596 H         1 <0>         0.0945
     40 H16         7.2796  -10.5062    1.6353 H         1 <0>         0.0674
     41 H17         5.5158  -11.6985    0.0000 H         1 <0>         0.4039
@<TRIPOS>BOND
     1    1    6 ar
     2    1    2 ar
     3    1   26 1
     4    2    3 ar
     5    2   27 1
     6    3    4 ar
     7    3   28 1
     8    4    5 ar
     9    4    7 1
    10    5    6 ar
    11    5   29 1
    12    6   30 1
    13    7    8 2
    14    7   31 1
    15    8    9 1
    16    8   32 1
    17    9   14 ar
    18    9   10 ar
    19   10   11 ar
    20   10   33 1
    21   11   12 ar
    22   11   15 1
    23   12   13 ar
    24   12   34 1
    25   13   14 ar
    26   13   35 1
    27   15   19 1
    28   15   16 2
    29   16   17 1
    30   16   36 1
    31   17   24 1
    32   17   18 2
    33   18   19 1
    34   18   21 1
    35   19   20 1
    36   21   22 1
    37   21   37 1
    38   21   38 1
    39   22   23 1
    40   22   39 1
    41   22   40 1
    42   23   24 am
    43   23   41 1
    44   24   25 2
@<TRIPOS>MOLECULE
CHEMBL1089865
   52    56     0     0     0
SMALL
USER_CHARGES

@<TRIPOS>ATOM
      1 C1          0.2727   -1.3878    0.8783 C.3       1 <0>        -0.1192
      2 C2          1.0782   -2.4723    1.5462 C.ar      1 <0>        -0.0387
      3 C3          1.4838   -3.5754    0.8204 C.ar      1 <0>        -0.1271
      4 C4          2.2219   -4.5732    1.4245 C.ar      1 <0>        -0.0784
      5 C5          2.5634   -4.4724    2.7750 C.ar      1 <0>        -0.1428
      6 C6          2.1573   -3.3616    3.5118 C.ar      1 <0>        -0.0265
      7 C7          1.4173   -2.3570    2.8945 C.ar      1 <0>        -0.0248
      8 C8          0.9862   -1.1695    3.6696 C.2       1 <0>        -0.1925
      9 C9          1.6153    0.0457    3.4858 C.2       1 <0>         0.0642
     10 C10         1.1830    1.1591    4.2374 C.2       1 <0>        -0.2617
     11 C11         1.5979    2.5114    4.2930 C.2       1 <0>         0.1265
     12 N1          0.8566    3.1305    5.1679 N.2       1 <0>        -0.2542
     13 N2         -0.0638    2.2314    5.7188 N.pl3     1 <0>        -0.3400
     14 C12         0.1330    1.0138    5.1484 C.2       1 <0>         0.3669
     15 N3         -0.4744   -0.2020    5.3117 N.am      1 <0>        -0.4960
     16 C13        -0.0783   -1.2732    4.5995 C.2       1 <0>         0.5542
     17 O1         -0.6377   -2.3446    4.7594 O.2       1 <0>        -0.5165
     18 C14        -1.5736   -0.3379    6.2706 C.3       1 <0>         0.0509
     19 C15        -1.0258    2.5355    6.6937 C.ar      1 <0>         0.0512
     20 C16        -0.6795    2.5299    8.0397 C.ar      1 <0>         0.1519
     21 C17        -1.6309    2.8302    8.9982 C.ar      1 <0>        -0.1559
     22 C18        -2.9249    3.1352    8.6185 C.ar      1 <0>        -0.0362
     23 C19        -3.2733    3.1418    7.2805 C.ar      1 <0>        -0.1556
     24 C20        -2.3260    2.8486    6.3158 C.ar      1 <0>         0.1498
     25 F1         -2.6658    2.8613    5.0083 F         1 <0>        -0.1153
     26 F2          0.5845    2.2311    8.4117 F         1 <0>        -0.1135
     27 C21         3.3537   -5.5420    3.4215 C.2       1 <0>         0.5657
     28 O2          3.6501   -5.4527    4.5969 O.2       1 <0>        -0.5323
     29 N4          3.7453   -6.6159    2.7074 N.am      1 <0>        -0.7002
     30 C22         4.5282   -7.6756    3.3479 C.3       1 <0>         0.0783
     31 C23         5.7232   -8.2367    2.5746 C.3       1 <0>        -0.1922
     32 C24         4.4544   -9.0762    2.7366 C.3       1 <0>        -0.1885
     33 H1          0.9466   -0.6416    0.4575 H         1 <0>         0.0776
     34 H2         -0.3314   -1.8222    0.0818 H         1 <0>         0.0713
     35 H3         -0.3797   -0.9153    1.6126 H         1 <0>         0.0670
     36 H4          1.2220   -3.6577   -0.2242 H         1 <0>         0.1324
     37 H5          2.5355   -5.4336    0.8519 H         1 <0>         0.1252
     38 H6          2.4184   -3.2788    4.5565 H         1 <0>         0.1350
     39 H7          2.4256    0.1425    2.7783 H         1 <0>         0.1494
     40 H8          2.3927    2.9539    3.7109 H         1 <0>         0.2098
     41 H9         -2.5092   -0.0433    5.7951 H         1 <0>         0.0765
     42 H10        -1.6435   -1.3750    6.5986 H         1 <0>         0.1091
     43 H11        -1.3860    0.3037    7.1316 H         1 <0>         0.0736
     44 H12        -1.3626    2.8260   10.0443 H         1 <0>         0.1590
     45 H13        -3.6656    3.3685    9.3691 H         1 <0>         0.1589
     46 H14        -4.2852    3.3802    6.9879 H         1 <0>         0.1588
     47 H15         3.5087   -6.6871    1.7694 H         1 <0>         0.4011
     48 H16         4.6187   -7.6036    4.4317 H         1 <0>         0.1394
     49 H17         5.9269   -7.8174    1.5893 H         1 <0>         0.0975
     50 H18         6.6002   -8.5339    3.1496 H         1 <0>         0.1039
     51 H19         4.4967   -9.9257    3.4183 H         1 <0>         0.1052
     52 H20         3.8233   -9.2092    1.8579 H         1 <0>         0.0978
@<TRIPOS>BOND
     1    1    2 1
     2    1   33 1
     3    1   34 1
     4    1   35 1
     5    2    7 ar
     6    2    3 ar
     7    3    4 ar
     8    3   36 1
     9    4    5 ar
    10    4   37 1
    11    5    6 ar
    12    5   27 1
    13    6    7 ar
    14    6   38 1
    15    7    8 1
    16    8   16 1
    17    8    9 2
    18    9   10 1
    19    9   39 1
    20   10   14 2
    21   10   11 1
    22   11   12 2
    23   11   40 1
    24   12   13 1
    25   13   14 1
    26   13   19 1
    27   14   15 1
    28   15   16 am
    29   15   18 1
    30   16   17 2
    31   18   41 1
    32   18   42 1
    33   18   43 1
    34   19   24 ar
    35   19   20 ar
    36   20   21 ar
    37   20   26 1
    38   21   22 ar
    39   21   44 1
    40   22   23 ar
    41   22   45 1
    42   23   24 ar
    43   23   46 1
    44   24   25 1
    45   27   28 2
    46   27   29 am
    47   29   30 1
    48   29   47 1
    49   30   32 1
    50   30   31 1
    51   30   48 1
    52   31   32 1
    53   31   49 1
    54   31   50 1
    55   32   51 1
    56   32   52 1
@<TRIPOS>MOLECULE
CHEMBL553397
   33    35     0     0     0
SMALL
USER_CHARGES

@<TRIPOS>ATOM
      1 C1         -0.0173    1.4248    0.0099 C.3       1 <0>         0.0251
      2 O1          0.0021   -0.0041    0.0020 O.3       1 <0>        -0.3172
      3 C2          0.6263   -0.6188    1.0422 C.ar      1 <0>         0.1197
      4 C3          1.2006    0.1549    2.0489 C.ar      1 <0>        -0.1610
      5 C4          1.8360   -0.4652    3.1043 C.ar      1 <0>        -0.0411
      6 C5          1.8949   -1.8447    3.1513 C.ar      1 <0>        -0.1309
      7 C6          1.3227   -2.6550    2.1546 C.ar      1 <0>        -0.0855
      8 C7          0.6740   -1.9904    1.0840 C.ar      1 <0>        -0.1031
      9 C8          1.4626   -4.1054    2.3482 C.2       1 <0>         0.2420
     10 C9          2.1374   -4.5197    3.4793 C.2       1 <0>        -0.2739
     11 S1          2.5989   -3.0028    4.2940 S.3       1 <0>         0.1364
     12 C10         2.4286   -5.8021    3.9483 C.2       1 <0>         0.6003
     13 O2          2.9782   -5.8406    5.0343 O.2       1 <0>        -0.5643
     14 N1          2.2010   -6.9734    3.3994 N.am      1 <0>        -0.6894
     15 C11         1.5959   -7.2651    2.1229 C.3       1 <0>         0.1157
     16 H1          1.2077   -8.2834    2.1447 H         1 <0>         0.1120
     17 C12         0.4683   -6.3239    1.7644 C.3       1 <0>         0.1169
     18 N2          0.9335   -5.0030    1.4171 N.pl3     1 <0>        -0.7240
     19 C13         2.6710   -7.1742    1.0381 C.3       1 <0>         0.0622
     20 O3          3.6460   -8.1980    1.2467 O.3       1 <0>        -0.5692
     21 H2          1.0053    1.8021    0.0021 H         1 <0>         0.0580
     22 H3         -0.5445    1.7859   -0.8732 H         1 <0>         0.1031
     23 H4         -0.5275    1.7763    0.9067 H         1 <0>         0.0580
     24 H5          1.1488    1.2326    2.0028 H         1 <0>         0.1438
     25 H6          2.2855    0.1245    3.8896 H         1 <0>         0.1422
     26 H7          0.2170   -2.5670    0.2934 H         1 <0>         0.1327
     27 H8          2.4764   -7.7436    3.9209 H         1 <0>         0.4088
     28 H9         -0.0798   -6.7377    0.9180 H         1 <0>         0.1089
     29 H10        -0.2088   -6.2459    2.6151 H         1 <0>         0.0801
     30 H11         0.8756   -4.7236    0.4900 H         1 <0>         0.4038
     31 H12         2.2109   -7.3049    0.0587 H         1 <0>         0.0551
     32 H13         3.1534   -6.1980    1.0855 H         1 <0>         0.0509
     33 H14         4.3596   -8.2003    0.5942 H         1 <0>         0.3837
@<TRIPOS>BOND
     1    1    2 1
     2    1   21 1
     3    1   22 1
     4    1   23 1
     5    2    3 1
     6    3    8 ar
     7    3    4 ar
     8    4    5 ar
     9    4   24 1
    10    5    6 ar
    11    5   25 1
    12    6   11 1
    13    6    7 ar
    14    7    8 ar
    15    7    9 1
    16    8   26 1
    17    9   18 1
    18    9   10 2
    19   10   11 1
    20   10   12 1
    21   12   13 2
    22   12   14 am
    23   14   15 1
    24   14   27 1
    25   15   16 1
    26   15   17 1
    27   15   19 1
    28   17   18 1
    29   17   28 1
    30   17   29 1
    31   18   30 1
    32   19   20 1
    33   19   31 1
    34   19   32 1
    35   20   33 1
@<TRIPOS>MOLECULE
CHEMBL460091
   49    53     0     0     0
SMALL
USER_CHARGES

@<TRIPOS>ATOM
      1 C1          0.1164    1.4438    0.8083 C.ar      1 <0>        -0.2471
      2 C2          0.3247    0.1880    1.3639 C.ar      1 <0>        -0.1035
      3 C3          1.4705   -0.5022    1.0958 C.ar      1 <0>        -0.1532
      4 C4          2.4492    0.0675    0.2471 C.ar      1 <0>         0.0921
      5 C5          2.2233    1.3478   -0.3119 C.ar      1 <0>        -0.2205
      6 C6          1.0681    2.0151   -0.0264 C.ar      1 <0>        -0.0971
      7 C7          3.6296   -0.6285   -0.0365 C.2       1 <0>        -0.3729
      8 C8          3.6612   -2.1000    0.0666 C.2       1 <0>         0.4417
      9 N1          2.5154   -2.7354    0.0649 N.2       1 <0>        -0.6902
     10 C9          2.4584   -4.0852    0.1556 C.2       1 <0>         0.5377
     11 O1          1.3954   -4.6770    0.1538 O.2       1 <0>        -0.5658
     12 C10         3.7380   -4.8053    0.2561 C.2       1 <0>        -0.3080
     13 C11         4.1278   -6.1134    0.3617 C.2       1 <0>        -0.0852
     14 C12         5.6128   -6.0980    0.4196 C.2       1 <0>         0.1805
     15 N2          6.0335   -4.8587    0.3509 N.2       1 <0>        -0.5915
     16 C13         4.9814   -3.9984    0.2499 C.2       1 <0>         0.3863
     17 N3          4.8634   -2.6946    0.1503 N.2       1 <0>        -0.5902
     18 C14         6.4767   -7.2893    0.5364 C.2       1 <0>        -0.1780
     19 C15         5.9230   -8.5787    0.5979 C.2       1 <0>        -0.1725
     20 C16         6.7632   -9.6685    0.7070 C.2       1 <0>         0.0518
     21 N4          8.0711   -9.5182    0.7541 N.pl3     1 <0>        -0.6162
     22 C17         8.6451   -8.3199    0.7001 C.2       1 <0>        -0.0258
     23 C18         7.8706   -7.1652    0.5832 C.2       1 <0>         0.0097
     24 C19        10.1133   -8.2110    0.7575 C.2       1 <0>        -0.0374
     25 C20        10.8651   -9.3185    0.8639 C.2       1 <0>        -0.2330
     26 C21        12.3337   -9.2096    0.9213 C.ar      1 <0>        -0.0051
     27 C22        12.9472   -7.9550    0.8711 C.ar      1 <0>        -0.1388
     28 C23        14.3220   -7.8608    0.9258 C.ar      1 <0>        -0.1100
     29 C24        15.0938   -9.0047    1.0297 C.ar      1 <0>        -0.1551
     30 C25        14.4933  -10.2505    1.0799 C.ar      1 <0>        -0.1149
     31 C26        13.1193  -10.3599    1.0320 C.ar      1 <0>        -0.1390
     32 H1         -0.7965    1.9792    1.0238 H         1 <0>         0.0837
     33 H2         -0.4239   -0.2440    2.0115 H         1 <0>         0.0875
     34 H3          1.6301   -1.4783    1.5295 H         1 <0>         0.1183
     35 H4          2.9618    1.7946   -0.9610 H         1 <0>         0.0931
     36 H5          0.8928    2.9924   -0.4515 H         1 <0>         0.0859
     37 H6          4.5174   -0.0886   -0.3308 H         1 <0>         0.0945
     38 H7          3.4859   -6.9812    0.3960 H         1 <0>         0.1308
     39 H8          4.8524   -8.7158    0.5605 H         1 <0>         0.1114
     40 H9          6.3410  -10.6615    0.7548 H         1 <0>         0.1282
     41 H10         8.3377   -6.1926    0.5340 H         1 <0>         0.1265
     42 H11        10.5849   -7.2403    0.7140 H         1 <0>         0.1194
     43 H12        10.3935  -10.2892    0.9074 H         1 <0>         0.1034
     44 H13        12.3461   -7.0614    0.7893 H         1 <0>         0.1234
     45 H14        14.7975   -6.8919    0.8871 H         1 <0>         0.1158
     46 H15        16.1700   -8.9249    1.0714 H         1 <0>         0.1116
     47 H16        15.1020  -11.1389    1.1606 H         1 <0>         0.1127
     48 H17        12.6519  -11.3326    1.0754 H         1 <0>         0.1154
     49 H18         8.6325  -10.3055    0.8310 H         1 <0>         0.3896
@<TRIPOS>BOND
     1    1    6 ar
     2    1    2 ar
     3    1   32 1
     4    2    3 ar
     5    2   33 1
     6    3    4 ar
     7    3   34 1
     8    4    5 ar
     9    4    7 1
    10    5    6 ar
    11    5   35 1
    12    6   36 1
    13    7    8 1
    14    7   37 1
    15    8   17 1
    16    8    9 2
    17    9   10 1
    18   10   11 2
    19   10   12 1
    20   12   16 1
    21   12   13 2
    22   13   14 1
    23   13   38 1
    24   14   15 2
    25   14   18 1
    26   15   16 1
    27   16   17 2
    28   18   23 1
    29   18   19 1
    30   19   20 2
    31   19   39 1
    32   20   21 1
    33   20   40 1
    34   21   22 1
    35   21   49 1
    36   22   23 2
    37   22   24 1
    38   23   41 1
    39   24   25 2
    40   24   42 1
    41   25   26 1
    42   25   43 1
    43   26   31 ar
    44   26   27 ar
    45   27   28 ar
    46   27   44 1
    47   28   29 ar
    48   28   45 1
    49   29   30 ar
    50   29   46 1
    51   30   31 ar
    52   30   47 1
    53   31   48 1
@<TRIPOS>MOLECULE
CHEMBL460091__1
   51    55     0     0     0
SMALL
USER_CHARGES

@<TRIPOS>ATOM
      1 C1         -0.0167    1.3781    0.0096 C.ar      1 <0>        -0.1173
      2 C2          1.1709    2.0855    0.0021 C.ar      1 <0>        -0.1193
      3 C3          2.3773    1.4107   -0.0130 C.ar      1 <0>        -0.1005
      4 C4          2.3960    0.0285   -0.0201 C.ar      1 <0>        -0.0643
      5 C5          1.2084   -0.6789   -0.0117 C.ar      1 <0>        -0.1005
      6 C6          0.0021   -0.0041    0.0020 C.ar      1 <0>        -0.1194
      7 C7          3.7112   -0.7071   -0.0376 C.3       1 <0>        -0.0360
      8 C8          4.1644   -0.9594    1.3773 C.2       1 <0>         0.4162
      9 N1          5.3386   -1.6096    1.5737 N.am      1 <0>        -0.6466
     10 H1          5.8640   -1.8998    0.8117 H         1 <0>         0.4220
     11 C9          5.7795   -1.8544    2.8300 C.2       1 <0>         0.5698
     12 O1          6.8315   -2.4366    3.0284 O.2       1 <0>        -0.5168
     13 C10         4.9468   -1.3940    3.9394 C.2       1 <0>        -0.2695
     14 C11         5.0518   -1.4529    5.3448 C.2       1 <0>        -0.0788
     15 C12         3.9520   -0.8442    5.8603 C.2       1 <0>         0.0596
     16 N2          3.1562   -0.4030    4.8237 N.pl3     1 <0>        -0.5259
     17 H2          2.3119    0.0644    4.9216 H         1 <0>         0.4237
     18 C13         3.7475   -0.7298    3.6388 C.2       1 <0>         0.3039
     19 N3          3.4137   -0.5386    2.3534 N.2       1 <0>        -0.5076
     20 C14         3.6562   -0.6812    7.2986 C.ar      1 <0>         0.0345
     21 C15         4.5402   -1.1644    8.2742 C.ar      1 <0>        -0.1626
     22 C16         4.2315   -0.9938    9.6077 C.ar      1 <0>         0.1193
     23 N4          3.1216   -0.3859    9.9772 N.ar      1 <0>        -0.4844
     24 C17         2.2514    0.0898    9.0903 C.ar      1 <0>         0.1734
     25 C18         2.4912   -0.0363    7.7225 C.ar      1 <0>        -0.1666
     26 C19         1.0259    0.7611    9.5577 C.2       1 <0>        -0.1315
     27 C20         0.7914    0.8905   10.8735 C.2       1 <0>        -0.0526
     28 C21        -0.4344    1.5620   11.3410 C.ar      1 <0>        -0.0694
     29 C22        -1.3577    2.0602   10.4179 C.ar      1 <0>        -0.1089
     30 C23        -2.5026    2.6874   10.8628 C.ar      1 <0>        -0.1209
     31 C24        -2.7381    2.8240   12.2196 C.ar      1 <0>        -0.1138
     32 C25        -1.8283    2.3331   13.1396 C.ar      1 <0>        -0.1208
     33 C26        -0.6818    1.6985   12.7095 C.ar      1 <0>        -0.1000
     34 H3         -0.9591    1.9053    0.0259 H         1 <0>         0.1199
     35 H4          1.1563    3.1654    0.0076 H         1 <0>         0.1206
     36 H5          3.3051    1.9634   -0.0196 H         1 <0>         0.1187
     37 H6          1.2231   -1.7588   -0.0176 H         1 <0>         0.1187
     38 H7         -0.9258   -0.5567    0.0082 H         1 <0>         0.1206
     39 H8          3.5884   -1.6586   -0.5549 H         1 <0>         0.1130
     40 H9          4.4573   -0.1052   -0.5563 H         1 <0>         0.1128
     41 H10         5.8581   -1.8996    5.9076 H         1 <0>         0.1573
     42 H11         5.4524   -1.6648    7.9846 H         1 <0>         0.1433
     43 H12         4.9101   -1.3648   10.3615 H         1 <0>         0.1643
     44 H13         1.7867    0.3541    7.0030 H         1 <0>         0.1300
     45 H14         0.3162    1.1491    8.8420 H         1 <0>         0.1302
     46 H15         1.5011    0.5025   11.5891 H         1 <0>         0.1366
     47 H16        -1.1750    1.9546    9.3587 H         1 <0>         0.1248
     48 H17        -3.2169    3.0732   10.1506 H         1 <0>         0.1244
     49 H18        -3.6362    3.3164   12.5622 H         1 <0>         0.1235
     50 H19        -2.0187    2.4433   14.1969 H         1 <0>         0.1254
     51 H20         0.0250    1.3116   13.4287 H         1 <0>         0.1270
@<TRIPOS>BOND
     1    1    6 ar
     2    1    2 ar
     3    1   34 1
     4    2    3 ar
     5    2   35 1
     6    3    4 ar
     7    3   36 1
     8    4    5 ar
     9    4    7 1
    10    5    6 ar
    11    5   37 1
    12    6   38 1
    13    7    8 1
    14    7   39 1
    15    7   40 1
    16    8   19 2
    17    8    9 1
    18    9   10 1
    19    9   11 am
    20   11   12 2
    21   11   13 1
    22   13   18 2
    23   13   14 1
    24   14   15 2
    25   14   41 1
    26   15   16 1
    27   15   20 1
    28   16   17 1
    29   16   18 1
    30   18   19 1
    31   20   25 ar
    32   20   21 ar
    33   21   22 ar
    34   21   42 1
    35   22   23 ar
    36   22   43 1
    37   23   24 ar
    38   24   25 ar
    39   24   26 1
    40   25   44 1
    41   26   27 2
    42   26   45 1
    43   27   28 1
    44   27   46 1
    45   28   33 ar
    46   28   29 ar
    47   29   30 ar
    48   29   47 1
    49   30   31 ar
    50   30   48 1
    51   31   32 ar
    52   31   49 1
    53   32   33 ar
    54   32   50 1
    55   33   51 1
