@<TRIPOS>MOLECULE
ZINC04521968
   28    29     0     0     0
SMALL
USER_CHARGES
2-[3,4-dihydroxy-5-(hydroxymethyl)tetrahydrofuran-2-yl]-3-thioxo-1,2,4-triazin-5-one
@<TRIPOS>ATOM
      1 C1         -5.6710    0.1618   -0.8527 C.2       1 <0>         0.0553
      2 C2         -6.6925    0.5542    0.1225 C.2       1 <0>         0.5070
      3 O1         -7.7287    1.0752   -0.2464 O.2       1 <0>        -0.4636
      4 N1         -6.4694    0.3311    1.4342 N.am      1 <0>        -0.6144
      5 H1         -7.1562    0.5976    2.1104 H         1 <0>         0.4545
      6 C3         -5.3225   -0.2502    1.8333 C.2       1 <0>         0.5098
      7 S1         -5.0568   -0.5337    3.5007 S.2       1 <0>        -0.5231
      8 N2         -4.3803   -0.6069    0.9426 N.pl3     1 <0>        -0.3839
      9 N3         -4.5701   -0.3942   -0.4280 N.2       1 <0>        -0.1424
     10 C4         -3.1412   -1.2319    1.4122 C.3       1 <0>         0.3075
     11 H2         -3.2551   -1.5466    2.4495 H         1 <0>         0.1868
     12 C5         -2.8009   -2.4485    0.5298 C.3       1 <0>         0.0475
     13 H3         -2.6982   -3.3469    1.1385 H         1 <0>         0.1013
     14 C6         -1.4464   -2.0777   -0.1217 C.3       1 <0>         0.0497
     15 H4         -1.4240   -2.3770   -1.1696 H         1 <0>         0.0943
     16 C7         -1.4333   -0.5336    0.0129 C.3       1 <0>         0.0824
     17 H5         -2.0169   -0.0739   -0.7847 H         1 <0>         0.1029
     18 O2         -2.0509   -0.3023    1.2972 O.3       1 <0>        -0.3290
     19 C8          0.0021   -0.0041    0.0020 C.3       1 <0>         0.0883
     20 O3         -0.0173    1.4248    0.0099 O.3       1 <0>        -0.5710
     21 O4         -0.3575   -2.6615    0.5963 O.3       1 <0>        -0.5437
     22 O5         -3.8029   -2.6361   -0.4715 O.3       1 <0>        -0.5374
     23 H6         -5.8276    0.3308   -1.9079 H         1 <0>         0.2280
     24 H7          0.5123   -0.3556   -0.8948 H         1 <0>         0.0648
     25 H8          0.5293   -0.3651    0.8851 H         1 <0>         0.0692
     26 H9          0.8606    1.8301    0.0037 H         1 <0>         0.3855
     27 H10        -0.3230   -3.6263    0.5422 H         1 <0>         0.3871
     28 H11        -3.6102   -3.3529   -1.0914 H         1 <0>         0.3868
@<TRIPOS>BOND
     1    1    9 2
     2    1    2 1
     3    1   23 1
     4    2    3 2
     5    2    4 am
     6    4    5 1
     7    4    6 1
     8    6    7 2
     9    6    8 1
    10    8    9 1
    11    8   10 1
    12   10   11 1
    13   10   18 1
    14   10   12 1
    15   12   13 1
    16   12   14 1
    17   12   22 1
    18   14   15 1
    19   14   16 1
    20   14   21 1
    21   16   17 1
    22   16   18 1
    23   16   19 1
    24   19   20 1
    25   19   24 1
    26   19   25 1
    27   20   26 1
    28   21   27 1
    29   22   28 1
@<TRIPOS>MOLECULE
ZINC16951518
   26    26     0     0     0
SMALL
USER_CHARGES
(4S,5R,6S,7S)-4-(hydroxymethyl)-7-(iodomethyl)-1,3-dioxepane-5,6-diol
@<TRIPOS>ATOM
      1 C1         -0.8493    1.8855    3.5252 C.3       1 <0>         0.2288
      2 O1         -1.3268    3.0046    4.1464 O.3       1 <0>        -0.3760
      3 C2         -2.1302    3.9028    3.3699 C.3       1 <0>         0.0606
      4 H1         -2.7705    3.3370    2.6933 H         1 <0>         0.0817
      5 C3         -1.1892    4.7751    2.5766 C.3       1 <0>         0.0981
      6 H2         -0.2494    4.8709    3.1203 H         1 <0>         0.0871
      7 C4         -0.9056    4.1847    1.1831 C.3       1 <0>         0.0975
      8 H3          0.0105    4.6217    0.7858 H         1 <0>         0.0785
      9 C5         -0.7434    2.6511    1.2727 C.3       1 <0>         0.0555
     10 H4         -1.7329    2.1958    1.3135 H         1 <0>         0.0771
     11 O2         -0.0108    2.2414    2.3991 O.3       1 <0>        -0.3782
     12 C6         -0.0272    2.1577    0.0139 C.3       1 <0>        -0.0968
     13 I1          0.0021   -0.0041    0.0020 I         1 <0>        -0.1225
     14 O3         -1.9944    4.4950    0.3111 O.3       1 <0>        -0.5378
     15 O4         -1.7733    6.0704    2.4241 O.3       1 <0>        -0.5444
     16 C7         -2.9875    4.7689    4.2950 C.3       1 <0>         0.0755
     17 O5         -3.9535    3.9486    4.9555 O.3       1 <0>        -0.5645
     18 H5         -0.2652    1.3021    4.2369 H         1 <0>         0.1399
     19 H6         -1.6883    1.2855    3.1729 H         1 <0>         0.0442
     20 H7          0.9954    2.5350    0.0062 H         1 <0>         0.1099
     21 H8         -0.5544    2.5188   -0.8692 H         1 <0>         0.1083
     22 H9         -1.8820    4.1654   -0.5910 H         1 <0>         0.3772
     23 H10        -1.9816    6.5089    3.2604 H         1 <0>         0.3779
     24 H11        -2.3500    5.2489    5.0375 H         1 <0>         0.0588
     25 H12        -3.4991    5.5315    3.7078 H         1 <0>         0.0781
     26 H13        -4.5333    4.4325    5.5595 H         1 <0>         0.3856
@<TRIPOS>BOND
     1    1   11 1
     2    1    2 1
     3    1   18 1
     4    1   19 1
     5    2    3 1
     6    3    4 1
     7    3    5 1
     8    3   16 1
     9    5    6 1
    10    5    7 1
    11    5   15 1
    12    7    8 1
    13    7    9 1
    14    7   14 1
    15    9   10 1
    16    9   11 1
    17    9   12 1
    18   12   13 1
    19   12   20 1
    20   12   21 1
    21   14   22 1
    22   15   23 1
    23   16   17 1
    24   16   24 1
    25   16   25 1
    26   17   26 1
@<TRIPOS>MOLECULE
ZINC05566553
   23    24     0     0     0
SMALL
USER_CHARGES
5-[(4-oxo-2-thioxo-imidazolidin-1-yl)methylene]hexahydropyrimidine-2,4,6-trione
@<TRIPOS>ATOM
      1 C1          0.5042    3.2542    1.0610 C.3       1 <0>         0.0314
      2 C2          0.4242    1.9089    1.7547 C.2       1 <0>         0.5045
      3 O1          1.3414    1.2748    2.2309 O.2       1 <0>        -0.4344
      4 N1         -0.8792    1.5668    1.7372 N.am      1 <0>        -0.6431
      5 C3         -1.6254    2.4972    1.1309 C.2       1 <0>         0.5248
      6 S1         -3.3221    2.3777    0.9357 S.2       1 <0>        -0.4561
      7 N2         -0.8936    3.5370    0.6917 N.pl3     1 <0>        -0.5097
      8 C4         -1.3548    4.6367    0.0383 C.2       1 <0>         0.3707
      9 C5         -0.6787    5.8351    0.1424 C.2       1 <0>        -0.3752
     10 C6          0.7952    5.8906    0.1384 C.2       1 <0>         0.5786
     11 O2          1.4585    4.8752    0.0431 O.2       1 <0>        -0.5148
     12 N3          1.3876    7.0984    0.2383 N.am      1 <0>        -0.6737
     13 C7          0.6691    8.2244    0.3497 C.2       1 <0>         0.7162
     14 O3          1.2645    9.2799    0.4413 O.2       1 <0>        -0.5298
     15 N4         -0.6709    8.2486    0.3660 N.am      1 <0>        -0.6763
     16 C8         -1.3981    7.1166    0.2686 C.2       1 <0>         0.5908
     17 O4         -2.6140    7.1517    0.2842 O.2       1 <0>        -0.4847
     18 H1          1.1236    3.2198    0.1526 H         1 <0>         0.1909
     19 H2          0.8749    4.0467    1.7277 H         1 <0>         0.1481
     20 H3         -1.2051    0.6186    2.1896 H         1 <0>         0.4857
     21 H4         -2.2668    4.5710   -0.5732 H         1 <0>         0.2152
     22 H5          2.4849    7.1752    0.2294 H         1 <0>         0.4696
     23 H6         -1.2026    9.2069    0.4605 H         1 <0>         0.4714
@<TRIPOS>BOND
     1    1    7 1
     2    1    2 1
     3    1   18 1
     4    1   19 1
     5    2    3 2
     6    2    4 am
     7    4    5 1
     8    4   20 1
     9    5    6 2
    10    5    7 1
    11    7    8 1
    12    8    9 2
    13    8   21 1
    14    9   16 1
    15    9   10 1
    16   10   11 2
    17   10   12 am
    18   12   13 am
    19   12   22 1
    20   13   14 2
    21   13   15 am
    22   15   16 am
    23   15   23 1
    24   16   17 2
@<TRIPOS>MOLECULE
ZINC42430410
   39    40     0     0     0
SMALL
USER_CHARGES

@<TRIPOS>ATOM
      1 C1          0.6924    0.8676    0.6108 C.3       1 <0>        -0.1156
      2 C2          1.9969    0.0883    0.4282 C.3       1 <0>        -0.1339
      3 C3          3.1844    1.0399    0.6039 C.3       1 <0>         0.1455
      4 N1          3.0614    1.7147    1.9033 N.am      1 <0>        -0.6653
      5 C4          1.8107    2.4184    2.2183 C.3       1 <0>         0.0864
      6 H1          1.6939    3.2725    1.5512 H         1 <0>         0.0592
      7 C5          0.6386    1.4513    2.0245 C.3       1 <0>        -0.1153
      8 C6          1.8453    2.8949    3.6476 C.2       1 <0>         0.4948
      9 O1          1.2497    3.9098    3.9664 O.co2     1 <0>        -0.6788
     10 O2          2.4689    2.2654    4.4851 O.co2     1 <0>        -0.6706
     11 C7          4.0765    1.6883    2.7895 C.2       1 <0>         0.7753
     12 O3          4.4518    0.6286    3.2527 O.2       1 <0>        -0.5678
     13 N2          4.6755    2.8366    3.1625 N.am      1 <0>        -0.6055
     14 C8          4.1255    4.1356    2.7516 C.3       1 <0>         0.1026
     15 C9          3.9210    5.0012    3.9989 C.3       1 <0>        -0.1432
     16 C10         5.2381    5.0927    4.7729 C.3       1 <0>        -0.1309
     17 C11         5.6668    3.6936    5.2210 C.3       1 <0>         0.0040
     18 H2          4.8863    3.2558    5.8434 H         1 <0>         0.1552
     19 C12         5.8876    2.8133    3.9926 C.3       1 <0>         0.1198
     20 N3          6.9141    3.7862    5.9914 N.4       1 <0>        -0.6307
     21 H3          0.6478    1.6768   -0.1182 H         1 <0>         0.0595
     22 H4         -0.1545    0.1979    0.4619 H         1 <0>         0.0609
     23 H5          2.0536   -0.7057    1.1728 H         1 <0>         0.0677
     24 H6          2.0240   -0.3467   -0.5709 H         1 <0>         0.0674
     25 H7          4.1148    0.4728    0.5733 H         1 <0>         0.0690
     26 H8          3.1797    1.7816   -0.1949 H         1 <0>         0.0548
     27 H9         -0.3011    1.9864    2.1615 H         1 <0>         0.0690
     28 H10         0.7081    0.6445    2.7541 H         1 <0>         0.0647
     29 H11         4.8220    4.6296    2.0742 H         1 <0>         0.0565
     30 H12         3.1693    3.9855    2.2503 H         1 <0>         0.1073
     31 H13         3.6043    6.0005    3.7003 H         1 <0>         0.0834
     32 H14         3.1570    4.5511    4.6328 H         1 <0>         0.1216
     33 H15         6.0079    5.5201    4.1304 H         1 <0>         0.0767
     34 H16         5.1016    5.7283    5.6479 H         1 <0>         0.0822
     35 H17         6.0937    1.7911    4.3098 H         1 <0>         0.1075
     36 H18         6.7310    3.1971    3.4186 H         1 <0>         0.0719
     37 H19         6.7661    4.3681    6.8023 H         1 <0>         0.4337
     38 H20         7.1963    2.8635    6.2866 H         1 <0>         0.4344
     39 H21         7.6365    4.1904    5.4146 H         1 <0>         0.4269
@<TRIPOS>BOND
     1    1    7 1
     2    1    2 1
     3    1   21 1
     4    1   22 1
     5    2    3 1
     6    2   23 1
     7    2   24 1
     8    3    4 1
     9    3   25 1
    10    3   26 1
    11    4    5 1
    12    4   11 am
    13    5    6 1
    14    5    7 1
    15    5    8 1
    16    7   27 1
    17    7   28 1
    18    8    9 2
    19    8   10 1
    20   11   12 2
    21   11   13 am
    22   13   19 1
    23   13   14 1
    24   14   15 1
    25   14   29 1
    26   14   30 1
    27   15   16 1
    28   15   31 1
    29   15   32 1
    30   16   17 1
    31   16   33 1
    32   16   34 1
    33   17   18 1
    34   17   19 1
    35   17   20 1
    36   19   35 1
    37   19   36 1
    38   20   37 1
    39   20   38 1
    40   20   39 1
@<TRIPOS>MOLECULE
ZINC54381316
   35    36     0     0     0
SMALL
USER_CHARGES

@<TRIPOS>ATOM
      1 C1         -0.0294    1.5428   -0.0193 C.3       1 <0>        -0.1733
      2 C2         -0.0083    0.0131   -0.0439 C.3       1 <0>         0.0969
      3 C3         -1.4457   -0.5192   -0.0217 C.3       1 <0>         0.1380
      4 N1         -2.0379   -0.2022    1.2875 N.pl3     1 <0>        -0.6393
      5 C4         -1.2812   -0.5675    2.4956 C.3       1 <0>         0.1241
      6 C5          0.1482   -0.0328    2.3508 C.3       1 <0>         0.0432
      7 O1          0.6915   -0.4733    1.1040 O.3       1 <0>        -0.3695
      8 C6         -3.2719    0.4214    1.3801 C.ar      1 <0>         0.3822
      9 C7         -4.4516   -0.3405    1.3529 C.ar      1 <0>         0.1106
     10 N2         -5.6296    0.2677    1.4424 N.ar      1 <0>        -0.4187
     11 C8         -5.6869    1.5815    1.5561 C.ar      1 <0>         0.0486
     12 C9         -4.5242    2.3324    1.5825 C.ar      1 <0>         0.0815
     13 N3         -3.3449    1.7403    1.5004 N.ar      1 <0>        -0.4488
     14 C10        -4.3829   -1.8124    1.2248 C.2       1 <0>         0.4150
     15 N4         -3.2298   -2.4145    1.2494 N.2       1 <0>        -0.3715
     16 O2         -3.1545   -3.8098    1.0200 O.3       1 <0>        -0.4238
     17 N5         -5.5464   -2.5500    1.0787 N.pl3     1 <0>        -0.8598
     18 C11         0.6964   -0.4679   -1.3139 C.3       1 <0>        -0.1378
     19 H1          0.9930    1.9204   -0.0305 H         1 <0>         0.0593
     20 H2         -0.5630    1.9129   -0.8947 H         1 <0>         0.0600
     21 H3         -0.5331    1.8847    0.8848 H         1 <0>         0.0717
     22 H4         -2.0258   -0.0428   -0.8121 H         1 <0>         0.0661
     23 H5         -1.4396   -1.5990   -0.1702 H         1 <0>         0.0732
     24 H6         -1.7524   -0.1231    3.3723 H         1 <0>         0.0688
     25 H7         -1.2586   -1.6522    2.6006 H         1 <0>         0.0736
     26 H8          0.1337    1.0567    2.3770 H         1 <0>         0.0573
     27 H9          0.7623   -0.4093    3.1689 H         1 <0>         0.0988
     28 H10        -6.6457    2.0732    1.6287 H         1 <0>         0.1802
     29 H11        -4.5806    3.4069    1.6755 H         1 <0>         0.1764
     30 H12        -2.2566   -4.1668    1.0582 H         1 <0>         0.4023
     31 H13        -6.4061   -2.1011    1.0604 H         1 <0>         0.4042
     32 H14        -5.5014   -3.5153    0.9947 H         1 <0>         0.4090
     33 H15         1.7189   -0.0906   -1.3271 H         1 <0>         0.0668
     34 H16         0.7110   -1.5577   -1.3307 H         1 <0>         0.0650
     35 H17         0.1613   -0.0982   -2.1885 H         1 <0>         0.0697
@<TRIPOS>BOND
     1    1    2 1
     2    1   19 1
     3    1   20 1
     4    1   21 1
     5    2    7 1
     6    2    3 1
     7    2   18 1
     8    3    4 1
     9    3   22 1
    10    3   23 1
    11    4    5 1
    12    4    8 1
    13    5    6 1
    14    5   24 1
    15    5   25 1
    16    6    7 1
    17    6   26 1
    18    6   27 1
    19    8   13 ar
    20    8    9 ar
    21    9   10 ar
    22    9   14 1
    23   10   11 ar
    24   11   12 ar
    25   11   28 1
    26   12   13 ar
    27   12   29 1
    28   14   15 2
    29   14   17 1
    30   15   16 1
    31   16   30 1
    32   17   31 1
    33   17   32 1
    34   18   33 1
    35   18   34 1
    36   18   35 1
@<TRIPOS>MOLECULE
ZINC03956720
   36    37     0     0     0
SMALL
USER_CHARGES
2-(hydroxymethyl)-6-(2-nitrophenoxy)-tetrahydropyran-3,4,5-triol
@<TRIPOS>ATOM
      1 C1         -4.6976    0.9891    1.5328 C.ar      1 <0>        -0.1521
      2 C2         -3.9910    0.5725    0.4195 C.ar      1 <0>        -0.0291
      3 C3         -2.6478    0.8718    0.3008 C.ar      1 <0>        -0.1923
      4 C4         -2.0074    1.5906    1.3000 C.ar      1 <0>         0.1965
      5 C5         -2.7171    2.0024    2.4184 C.ar      1 <0>        -0.0771
      6 C6         -4.0619    1.7054    2.5297 C.ar      1 <0>        -0.0272
      7 N1         -2.0358    2.7644    3.4887 N.pl3     1 <0>         0.0357
      8 O1         -2.6594    3.1258    4.4706 O.2       1 <0>        -0.1897
      9 O2         -0.8514    3.0302    3.3877 O.3       1 <0>        -0.1230
     10 O3         -0.6858    1.8859    1.1857 O.3       1 <0>        -0.2783
     11 C7         -0.0173    1.4248    0.0099 C.3       1 <0>         0.2088
     12 H1         -0.5442    1.7861   -0.8733 H         1 <0>         0.1169
     13 C8          1.4195    1.9533   -0.0010 C.3       1 <0>         0.0614
     14 H2          1.4075    3.0421    0.0495 H         1 <0>         0.0874
     15 C9          2.1706    1.3929    1.2107 C.3       1 <0>         0.0798
     16 H3          3.2098    1.7201    1.1788 H         1 <0>         0.0762
     17 C10         2.1137   -0.1373    1.1698 C.3       1 <0>         0.0960
     18 H4          2.6257   -0.4971    0.2774 H         1 <0>         0.0858
     19 C11         0.6501   -0.5850    1.1355 C.3       1 <0>         0.1036
     20 H5          0.1488   -0.2598    2.0471 H         1 <0>         0.0883
     21 O4          0.0021   -0.0041    0.0020 O.3       1 <0>        -0.3587
     22 C12         0.5854   -2.1103    1.0339 C.3       1 <0>         0.0878
     23 O5         -0.7762   -2.5359    1.1177 O.3       1 <0>        -0.5674
     24 O6          2.7488   -0.6700    2.3337 O.3       1 <0>        -0.5478
     25 O7          1.5565    1.8621    2.4127 O.3       1 <0>        -0.5186
     26 O8          2.0724    1.5369   -1.2020 O.3       1 <0>        -0.5367
     27 H6         -5.7478    0.7541    1.6237 H         1 <0>         0.1481
     28 H7         -4.4899    0.0130   -0.3580 H         1 <0>         0.1448
     29 H8         -2.0965    0.5468   -0.5693 H         1 <0>         0.1543
     30 H9         -4.6159    2.0297    3.3982 H         1 <0>         0.1582
     31 H10         1.0078   -2.4293    0.0811 H         1 <0>         0.0539
     32 H11         1.1554   -2.5533    1.8506 H         1 <0>         0.0741
     33 H12        -0.8930   -3.4941    1.0603 H         1 <0>         0.3821
     34 H13         3.6805   -0.4258    2.4200 H         1 <0>         0.3851
     35 H14         1.5571    2.8247    2.5047 H         1 <0>         0.3851
     36 H15         1.6466    1.8525   -2.0108 H         1 <0>         0.3880
@<TRIPOS>BOND
     1    1    6 ar
     2    1    2 ar
     3    1   27 1
     4    2    3 ar
     5    2   28 1
     6    3    4 ar
     7    3   29 1
     8    4    5 ar
     9    4   10 1
    10    5    6 ar
    11    5    7 1
    12    6   30 1
    13    7    8 2
    14    7    9 1
    15   10   11 1
    16   11   12 1
    17   11   21 1
    18   11   13 1
    19   13   14 1
    20   13   15 1
    21   13   26 1
    22   15   16 1
    23   15   17 1
    24   15   25 1
    25   17   18 1
    26   17   19 1
    27   17   24 1
    28   19   20 1
    29   19   21 1
    30   19   22 1
    31   22   23 1
    32   22   31 1
    33   22   32 1
    34   23   33 1
    35   24   34 1
    36   25   35 1
    37   26   36 1
@<TRIPOS>MOLECULE
ZINC14984463
   41    42     0     0     0
SMALL
USER_CHARGES
(2R,3S,4R,5S,6S)-2-(2-ethyl-4-hydroxy-phenoxy)-6-(hydroxymethyl)tetrahydropyran-3,4,5-triol
@<TRIPOS>ATOM
      1 C1          0.1484   -0.5200    1.4349 C.3       1 <0>        -0.1464
      2 C2          0.0021   -0.0041    0.0020 C.3       1 <0>        -0.0754
      3 C3         -0.0184    1.5028    0.0103 C.ar      1 <0>        -0.0909
      4 C4         -1.2240    2.1772    0.0197 C.ar      1 <0>        -0.1104
      5 C5         -1.2428    3.5638    0.0332 C.ar      1 <0>         0.0764
      6 C6         -0.0510    4.2737    0.0256 C.ar      1 <0>        -0.1109
      7 C7          1.1542    3.5995    0.0104 C.ar      1 <0>        -0.1644
      8 C8          1.1730    2.2124    0.0027 C.ar      1 <0>         0.1190
      9 O1          2.3598    1.5486   -0.0118 O.3       1 <0>        -0.2904
     10 C9          3.5475    2.3431   -0.0188 C.3       1 <0>         0.2278
     11 H1          3.4750    3.0983   -0.8016 H         1 <0>         0.0712
     12 C10         4.7597    1.4468   -0.2848 C.3       1 <0>         0.0630
     13 H2          4.8095    0.6665    0.4747 H         1 <0>         0.0924
     14 C11         6.0339    2.2953   -0.2309 C.3       1 <0>         0.0863
     15 H3          6.0069    3.0442   -1.0224 H         1 <0>         0.0760
     16 C12         6.1133    2.9918    1.1310 C.3       1 <0>         0.0870
     17 H4          6.9884    3.6412    1.1576 H         1 <0>         0.0874
     18 C13         4.8488    3.8285    1.3420 C.3       1 <0>         0.1088
     19 H5          4.7935    4.6031    0.5771 H         1 <0>         0.0856
     20 O2          3.6996    2.9842    1.2492 O.3       1 <0>        -0.3664
     21 C14         4.8928    4.4801    2.7257 C.3       1 <0>         0.0891
     22 O3          3.7704    5.3514    2.8778 O.3       1 <0>        -0.5672
     23 O4          6.2143    2.0100    2.1644 O.3       1 <0>        -0.5451
     24 O5          7.1771    1.4558   -0.4059 O.3       1 <0>        -0.5536
     25 O6          4.6377    0.8497   -1.5773 O.3       1 <0>        -0.5580
     26 O7         -2.4295    4.2276    0.0481 O.3       1 <0>        -0.4968
     27 H6         -0.6926   -0.1713    2.0343 H         1 <0>         0.0545
     28 H7          0.1632   -1.6099    1.4289 H         1 <0>         0.0583
     29 H8          1.0789   -0.1464    1.8624 H         1 <0>         0.0581
     30 H9         -0.9284   -0.3777   -0.4254 H         1 <0>         0.0721
     31 H10         0.8431   -0.3527   -0.5974 H         1 <0>         0.0745
     32 H11        -2.1519    1.6246    0.0206 H         1 <0>         0.1359
     33 H12        -0.0657    5.3535    0.0312 H         1 <0>         0.1317
     34 H13         2.0821    4.1521    0.0042 H         1 <0>         0.1318
     35 H14         4.8588    3.7065    3.4928 H         1 <0>         0.0697
     36 H15         5.8142    5.0533    2.8282 H         1 <0>         0.0664
     37 H16         3.7338    5.7998    3.7338 H         1 <0>         0.3855
     38 H17         6.9941    1.4427    2.0931 H         1 <0>         0.3896
     39 H18         7.1922    0.9827   -1.2491 H         1 <0>         0.3960
     40 H19         3.8487    0.3009   -1.6842 H         1 <0>         0.3940
     41 H20        -2.7812    4.4244   -0.8310 H         1 <0>         0.3880
@<TRIPOS>BOND
     1    1    2 1
     2    1   27 1
     3    1   28 1
     4    1   29 1
     5    2    3 1
     6    2   30 1
     7    2   31 1
     8    3    8 ar
     9    3    4 ar
    10    4    5 ar
    11    4   32 1
    12    5    6 ar
    13    5   26 1
    14    6    7 ar
    15    6   33 1
    16    7    8 ar
    17    7   34 1
    18    8    9 1
    19    9   10 1
    20   10   11 1
    21   10   20 1
    22   10   12 1
    23   12   13 1
    24   12   14 1
    25   12   25 1
    26   14   15 1
    27   14   16 1
    28   14   24 1
    29   16   17 1
    30   16   18 1
    31   16   23 1
    32   18   19 1
    33   18   20 1
    34   18   21 1
    35   21   22 1
    36   21   35 1
    37   21   36 1
    38   22   37 1
    39   23   38 1
    40   24   39 1
    41   25   40 1
    42   26   41 1
@<TRIPOS>MOLECULE
ZINC37558568
   36    37     0     0     0
SMALL
USER_CHARGES

@<TRIPOS>ATOM
      1 C1         -0.0187    1.5258    0.0104 C.3       1 <0>        -0.1671
      2 C2          0.0021   -0.0041    0.0020 C.3       1 <0>         0.1238
      3 N1          0.7106   -0.4894    1.1889 N.pl3     1 <0>        -0.3482
      4 C3          0.2275   -1.3601    2.0998 C.2       1 <0>         0.1969
      5 C4          1.1830   -1.5525    3.0374 C.2       1 <0>        -0.8557
      6 C5          2.2945   -0.7690    2.6868 C.2       1 <0>         0.4138
      7 N2          2.0102   -0.1354    1.5733 N.2       1 <0>        -0.3446
      8 N3          3.4973   -0.6832    3.3977 N.pl3     1 <0>        -0.8416
      9 S1          1.0560   -2.6002    4.4483 S.o2      1 <0>         2.7380
     10 O1          1.4783   -1.8302    5.5654 O.2       1 <0>        -0.9331
     11 O2         -0.2249   -3.2124    4.3856 O.2       1 <0>        -0.9576
     12 N4          2.1693   -3.8117    4.2605 N.pl3     1 <0>        -0.9927
     13 C6          1.9295   -5.1025    3.5899 C.3       1 <0>         0.1195
     14 C7          3.3308   -5.5771    3.1307 C.3       1 <0>        -0.1293
     15 C8          4.2213   -5.1067    4.3110 C.3       1 <0>        -0.1196
     16 C9          3.5623   -3.7755    4.7292 C.3       1 <0>         0.1305
     17 H1          4.0870   -2.9389    4.2678 H         1 <0>         0.0967
     18 C10         3.5948   -3.6398    6.2297 C.2       1 <0>         0.4961
     19 O3          2.5578   -3.5785    6.8556 O.2       1 <0>        -0.5059
     20 N5          4.7762   -3.5866    6.8761 N.am      1 <0>        -0.8537
     21 H2          1.0039    1.9031    0.0027 H         1 <0>         0.0723
     22 H3         -0.5459    1.8868   -0.8726 H         1 <0>         0.0792
     23 H4         -0.5289    1.8773    0.9072 H         1 <0>         0.0624
     24 H5         -1.0205   -0.3814    0.0098 H         1 <0>         0.1031
     25 H6          0.5123   -0.3556   -0.8948 H         1 <0>         0.0921
     26 H7         -0.7490   -1.8212    2.0832 H         1 <0>         0.1935
     27 H8          3.6165   -1.1953    4.2129 H         1 <0>         0.4063
     28 H9          4.2116   -0.1117    3.0752 H         1 <0>         0.4111
     29 H10         1.4967   -5.8184    4.2887 H         1 <0>         0.0766
     30 H11         1.2740   -4.9671    2.7296 H         1 <0>         0.0815
     31 H12         3.3612   -6.6617    3.0264 H         1 <0>         0.0901
     32 H13         3.6236   -5.0885    2.2014 H         1 <0>         0.0806
     33 H14         4.1927   -5.8286    5.1272 H         1 <0>         0.0857
     34 H15         5.2457   -4.9395    3.9783 H         1 <0>         0.0927
     35 H16         5.6056   -3.6356    6.3755 H         1 <0>         0.4005
     36 H17         4.7972   -3.4992    7.8419 H         1 <0>         0.4058
@<TRIPOS>BOND
     1    1    2 1
     2    1   21 1
     3    1   22 1
     4    1   23 1
     5    2    3 1
     6    2   24 1
     7    2   25 1
     8    3    7 1
     9    3    4 1
    10    4    5 2
    11    4   26 1
    12    5    6 1
    13    5    9 1
    14    6    7 2
    15    6    8 1
    16    8   27 1
    17    8   28 1
    18    9   10 2
    19    9   11 2
    20    9   12 1
    21   12   16 1
    22   12   13 1
    23   13   14 1
    24   13   29 1
    25   13   30 1
    26   14   15 1
    27   14   31 1
    28   14   32 1
    29   15   16 1
    30   15   33 1
    31   15   34 1
    32   16   17 1
    33   16   18 1
    34   18   19 2
    35   18   20 am
    36   20   35 1
    37   20   36 1
@<TRIPOS>MOLECULE
ZINC48843499
   48    49     0     0     0
SMALL
USER_CHARGES

@<TRIPOS>ATOM
      1 C1         -0.0187    1.5258    0.0104 C.3       1 <0>        -0.1193
      2 C2          1.4167    2.0553   -0.0004 C.3       1 <0>        -0.1188
      3 C3          2.1328    1.5619   -1.2592 C.3       1 <0>        -0.1098
      4 C4          2.1536    0.0321   -1.2676 C.3       1 <0>        -0.0767
      5 C5          0.7182   -0.4975   -1.2568 C.3       1 <0>        -0.1071
      6 C6          0.0021   -0.0041    0.0020 C.3       1 <0>        -0.1178
      7 C7          2.8697   -0.4613   -2.5264 C.3       1 <0>         0.0952
      8 H1          2.3426   -0.1002   -3.4095 H         1 <0>         0.0820
      9 C8          4.2835    0.0603   -2.5371 C.2       1 <0>         0.4915
     10 O1          5.1769   -0.5894   -2.0212 O.co2     1 <0>        -0.6937
     11 O2          4.5340    1.1320   -3.0618 O.co2     1 <0>        -0.6838
     12 N1          2.8896   -1.9262   -2.5345 N.am      1 <0>        -0.6990
     13 C9          2.9894   -2.5923   -3.7019 C.2       1 <0>         0.6999
     14 O3          3.0629   -1.9776   -4.7483 O.2       1 <0>        -0.5756
     15 N2          3.0076   -3.9400   -3.7093 N.am      1 <0>        -0.7706
     16 C10         3.1161   -4.6641   -4.9782 C.3       1 <0>         0.1513
     17 H2          2.5781   -4.1197   -5.7543 H         1 <0>         0.1117
     18 C11         4.5897   -4.7881   -5.3703 C.3       1 <0>        -0.1321
     19 C12         4.7030   -5.5443   -6.6955 C.3       1 <0>        -0.1277
     20 C13         4.0976   -6.9408   -6.5391 C.3       1 <0>        -0.1179
     21 C14         2.6239   -6.8168   -6.1470 C.3       1 <0>        -0.1355
     22 C15         2.5107   -6.0605   -4.8218 C.3       1 <0>         0.0195
     23 H3          3.0486   -6.6049   -4.0457 H         1 <0>         0.1464
     24 N3          1.0957   -5.9415   -4.4453 N.4       1 <0>        -0.6349
     25 H4         -0.5289    1.8773    0.9072 H         1 <0>         0.0573
     26 H5         -0.5459    1.8868   -0.8726 H         1 <0>         0.0598
     27 H6          1.4019    3.1452    0.0056 H         1 <0>         0.0617
     28 H7          1.9439    1.6943    0.8826 H         1 <0>         0.0593
     29 H8          1.6057    1.9230   -2.1423 H         1 <0>         0.0608
     30 H9          3.1554    1.9392   -1.2670 H         1 <0>         0.0814
     31 H10         2.6808   -0.3290   -0.3846 H         1 <0>         0.0703
     32 H11         0.1910   -0.1364   -2.1398 H         1 <0>         0.0585
     33 H12         0.7330   -1.5874   -1.2628 H         1 <0>         0.0497
     34 H13         0.5293   -0.3651    0.8851 H         1 <0>         0.0597
     35 H14        -1.0205   -0.3814    0.0098 H         1 <0>         0.0549
     36 H15         2.8310   -2.4166   -1.6997 H         1 <0>         0.3884
     37 H16         2.9490   -4.4304   -2.8744 H         1 <0>         0.3904
     38 H17         5.0210   -3.7933   -5.4817 H         1 <0>         0.0954
     39 H18         5.1277   -5.3325   -4.5942 H         1 <0>         0.0746
     40 H19         4.1651   -5.0000   -7.4716 H         1 <0>         0.0729
     41 H20         5.7529   -5.6327   -6.9749 H         1 <0>         0.0813
     42 H21         4.1783   -7.4795   -7.4832 H         1 <0>         0.0854
     43 H22         4.6355   -7.4852   -5.7630 H         1 <0>         0.0752
     44 H23         2.0860   -6.2724   -6.9231 H         1 <0>         0.0909
     45 H24         2.1926   -7.8116   -6.0356 H         1 <0>         0.0913
     46 H25         0.5978   -5.4375   -5.1638 H         1 <0>         0.4350
     47 H26         0.6965   -6.8624   -4.3422 H         1 <0>         0.4338
     48 H27         1.0211   -5.4427   -3.5714 H         1 <0>         0.4347
@<TRIPOS>BOND
     1    1    6 1
     2    1    2 1
     3    1   25 1
     4    1   26 1
     5    2    3 1
     6    2   27 1
     7    2   28 1
     8    3    4 1
     9    3   29 1
    10    3   30 1
    11    4    5 1
    12    4    7 1
    13    4   31 1
    14    5    6 1
    15    5   32 1
    16    5   33 1
    17    6   34 1
    18    6   35 1
    19    7    8 1
    20    7    9 1
    21    7   12 1
    22    9   10 2
    23    9   11 1
    24   12   13 am
    25   12   36 1
    26   13   14 2
    27   13   15 am
    28   15   16 1
    29   15   37 1
    30   16   17 1
    31   16   22 1
    32   16   18 1
    33   18   19 1
    34   18   38 1
    35   18   39 1
    36   19   20 1
    37   19   40 1
    38   19   41 1
    39   20   21 1
    40   20   42 1
    41   20   43 1
    42   21   22 1
    43   21   44 1
    44   21   45 1
    45   22   23 1
    46   22   24 1
    47   24   46 1
    48   24   47 1
    49   24   48 1
@<TRIPOS>MOLECULE
ZINC38102145
   35    36     0     0     0
SMALL
USER_CHARGES

@<TRIPOS>ATOM
      1 C1          0.3462    1.3666    0.8911 C.ar      1 <0>        -0.1845
      2 C2          0.9870    2.0658   -0.1197 C.ar      1 <0>        -0.0457
      3 C3          1.8330    1.4135   -0.9926 C.ar      1 <0>        -0.2040
      4 C4          2.0482    0.0469   -0.8629 C.ar      1 <0>         0.2679
      5 C5          1.4012   -0.6639    0.1598 C.ar      1 <0>        -0.2221
      6 C6          0.5473    0.0115    1.0357 C.ar      1 <0>        -0.0406
      7 C7          1.6203   -2.1142    0.3084 C.2       1 <0>         0.5721
      8 O1          2.7519   -2.5586    0.3359 O.2       1 <0>        -0.5374
      9 N1          0.5663   -2.9477    0.4136 N.am      1 <0>        -0.6066
     10 C8         -0.8049   -2.4434    0.2543 C.3       1 <0>         0.0898
     11 C9         -1.5019   -3.2570   -0.8432 C.3       1 <0>         0.1025
     12 N2         -1.3005   -4.6864   -0.5676 N.pl3     1 <0>        -1.0033
     13 C10         0.0707   -5.1907   -0.4083 C.3       1 <0>         0.1037
     14 C11         0.7680   -4.3782    0.6836 C.3       1 <0>         0.0981
     15 S1         -2.5955   -5.7105   -0.4383 S.o2      1 <0>         2.7943
     16 O2         -2.1647   -6.8128    0.3481 O.2       1 <0>        -0.9775
     17 O3         -3.7128   -4.9091   -0.0795 O.2       1 <0>        -0.9778
     18 N3         -2.9049   -6.3024   -1.9537 N.pl3     1 <0>        -1.2626
     19 N4          2.8987   -0.6123   -1.7409 N.pl3     1 <0>        -0.8614
     20 H1         -0.3109    1.8877    1.5717 H         1 <0>         0.1263
     21 H2          0.8227    3.1281   -0.2247 H         1 <0>         0.1268
     22 H3          2.3282    1.9656   -1.7777 H         1 <0>         0.1271
     23 H4          0.0454   -0.5283    1.8251 H         1 <0>         0.1261
     24 H5         -1.3472   -2.5555    1.1931 H         1 <0>         0.0802
     25 H6         -0.7770   -1.3919   -0.0316 H         1 <0>         0.1081
     26 H7         -2.5683   -3.0313   -0.8444 H         1 <0>         0.1094
     27 H8         -1.0715   -3.0072   -1.8129 H         1 <0>         0.0772
     28 H9          0.0428   -6.2422   -0.1224 H         1 <0>         0.1091
     29 H10         0.6130   -5.0786   -1.3471 H         1 <0>         0.0771
     30 H11         1.8343   -4.6042    0.6811 H         1 <0>         0.1087
     31 H12         0.3401   -4.6312    1.6537 H         1 <0>         0.0780
     32 H13        -2.3564   -6.0249   -2.7040 H         1 <0>         0.4145
     33 H14        -3.6345   -6.9265   -2.0909 H         1 <0>         0.4207
     34 H15         3.4163   -0.1062   -2.3865 H         1 <0>         0.4015
     35 H16         2.9750   -1.5787   -1.7085 H         1 <0>         0.4043
@<TRIPOS>BOND
     1    1    6 ar
     2    1    2 ar
     3    1   20 1
     4    2    3 ar
     5    2   21 1
     6    3    4 ar
     7    3   22 1
     8    4    5 ar
     9    4   19 1
    10    5    6 ar
    11    5    7 1
    12    6   23 1
    13    7    8 2
    14    7    9 am
    15    9   14 1
    16    9   10 1
    17   10   11 1
    18   10   24 1
    19   10   25 1
    20   11   12 1
    21   11   26 1
    22   11   27 1
    23   12   13 1
    24   12   15 1
    25   13   14 1
    26   13   28 1
    27   13   29 1
    28   14   30 1
    29   14   31 1
    30   15   16 2
    31   15   17 2
    32   15   18 1
    33   18   32 1
    34   18   33 1
    35   19   34 1
    36   19   35 1
@<TRIPOS>MOLECULE
ZINC03861733
   30    30     0     0     0
SMALL
USER_CHARGES
N-[2,4,5-trihydroxy-6-(hydroxymethyl)tetrahydropyran-3-yl]acetamide
@<TRIPOS>ATOM
      1 C1          1.1534    9.1939    2.5388 C.3       1 <0>        -0.1689
      2 C2          1.3693    7.7031    2.4919 C.2       1 <0>         0.5126
      3 O1          1.4398    7.0679    3.5227 O.2       1 <0>        -0.5202
      4 N1          1.4841    7.0759    1.3046 N.am      1 <0>        -0.7203
      5 C3          1.6940    5.6267    1.2590 C.3       1 <0>         0.1353
      6 H1          2.3180    5.3224    2.0993 H         1 <0>         0.1190
      7 C4          2.3845    5.2506   -0.0556 C.3       1 <0>         0.1111
      8 H2          1.7848    5.6010   -0.8957 H         1 <0>         0.0786
      9 C5          2.5282    3.7272   -0.1264 C.3       1 <0>         0.0474
     10 H3          2.9686    3.4470   -1.0833 H         1 <0>         0.0798
     11 C6          1.1449    3.0852    0.0077 C.3       1 <0>         0.0674
     12 H4          0.5167    3.3971   -0.8267 H         1 <0>         0.0787
     13 O2          0.5456    3.5005    1.2367 O.3       1 <0>        -0.3824
     14 C7          0.3429    4.9113    1.3396 C.3       1 <0>         0.2645
     15 H5         -0.2957    5.2473    0.5226 H         1 <0>         0.0516
     16 O3         -0.2826    5.2131    2.5885 O.3       1 <0>        -0.5165
     17 C8          1.2864    1.5618   -0.0018 C.3       1 <0>         0.0800
     18 O4         -0.0110    0.9628    0.0073 O.3       1 <0>        -0.5621
     19 O5          3.3689    3.2769    0.9377 O.3       1 <0>        -0.5365
     20 O6          3.6780    5.8557   -0.1063 O.3       1 <0>        -0.5392
     21 H6          1.1174    9.5879    1.5232 H         1 <0>         0.0732
     22 H7          0.2126    9.4090    3.0456 H         1 <0>         0.0945
     23 H8          1.9740    9.6629    3.0817 H         1 <0>         0.0944
     24 H9          1.4277    7.5839    0.4802 H         1 <0>         0.3989
     25 H10        -1.1446    4.7916    2.7086 H         1 <0>         0.3845
     26 H11         1.8401    1.2428    0.8812 H         1 <0>         0.0611
     27 H12         1.8231    1.2523   -0.8987 H         1 <0>         0.0662
     28 H13         0.0021   -0.0041    0.0020 H         1 <0>         0.3857
     29 H14         3.5001    2.3190    0.9569 H         1 <0>         0.3787
     30 H15         4.1728    5.6593   -0.9136 H         1 <0>         0.3830
@<TRIPOS>BOND
     1    1    2 1
     2    1   21 1
     3    1   22 1
     4    1   23 1
     5    2    3 2
     6    2    4 am
     7    4    5 1
     8    4   24 1
     9    5    6 1
    10    5   14 1
    11    5    7 1
    12    7    8 1
    13    7    9 1
    14    7   20 1
    15    9   10 1
    16    9   11 1
    17    9   19 1
    18   11   12 1
    19   11   13 1
    20   11   17 1
    21   13   14 1
    22   14   15 1
    23   14   16 1
    24   16   25 1
    25   17   18 1
    26   17   26 1
    27   17   27 1
    28   18   28 1
    29   19   29 1
    30   20   30 1
@<TRIPOS>MOLECULE
ZINC00270772
   28    28     0     0     0
SMALL
USER_CHARGES
3-chlorocyclohex-3-ene-1,6-dicarbohydrazide
@<TRIPOS>ATOM
      1 C1         -2.1262    1.6947    1.2695 C.3       1 <0>        -0.0775
      2 C2         -3.3075    2.6059    1.4315 C.2       1 <0>        -0.1377
      3 C3         -3.4314    3.7474    0.8303 C.2       1 <0>        -0.0666
      4 C4         -2.4153    4.3119   -0.1190 C.3       1 <0>        -0.0748
      5 C5         -1.0761    3.5914    0.0531 C.3       1 <0>        -0.0792
      6 H1         -0.6314    3.8668    1.0095 H         1 <0>         0.1121
      7 C6         -1.3314    2.0792    0.0197 C.3       1 <0>        -0.0864
      8 H2         -1.9028    1.8206   -0.8718 H         1 <0>         0.1115
      9 C7         -0.0162    1.3436    0.0094 C.2       1 <0>         0.5274
     10 O1          1.0258    1.9642    0.0028 O.2       1 <0>        -0.5016
     11 N1          0.0021   -0.0041    0.0020 N.am      1 <0>        -0.5818
     12 N2          1.1942   -0.6709   -0.0129 N.3       1 <0>        -0.6016
     13 C8         -0.1476    3.9733   -1.0707 C.2       1 <0>         0.5291
     14 O2          0.2714    3.1226   -1.8268 O.2       1 <0>        -0.5005
     15 N3          0.2173    5.2603   -1.2356 N.am      1 <0>        -0.5816
     16 N4          1.0589    5.6065   -2.2543 N.3       1 <0>        -0.6011
     17 Cl1        -4.8615    4.6809    1.1420 Cl        1 <0>        -0.0841
     18 H3         -2.4737    0.6659    1.1743 H         1 <0>         0.0919
     19 H4         -1.4841    1.7795    2.1462 H         1 <0>         0.0912
     20 H5         -4.1039    2.2907    2.0894 H         1 <0>         0.1278
     21 H6         -2.7664    4.1828   -1.1428 H         1 <0>         0.0931
     22 H7         -2.2807    5.3740    0.0855 H         1 <0>         0.0929
     23 H8         -0.8313   -0.5005    0.0073 H         1 <0>         0.3975
     24 H9          1.7740   -0.3924    0.7644 H         1 <0>         0.3451
     25 H10         1.0499   -1.6695   -0.0169 H         1 <0>         0.3560
     26 H11        -0.1178    5.9406   -0.6308 H         1 <0>         0.3976
     27 H12         0.6899    5.3091   -3.1450 H         1 <0>         0.3452
     28 H13         1.2410    6.5989   -2.2514 H         1 <0>         0.3562
@<TRIPOS>BOND
     1    1    7 1
     2    1    2 1
     3    1   18 1
     4    1   19 1
     5    2    3 2
     6    2   20 1
     7    3    4 1
     8    3   17 1
     9    4    5 1
    10    4   21 1
    11    4   22 1
    12    5    6 1
    13    5    7 1
    14    5   13 1
    15    7    8 1
    16    7    9 1
    17    9   10 2
    18    9   11 am
    19   11   12 1
    20   11   23 1
    21   12   24 1
    22   12   25 1
    23   13   14 2
    24   13   15 am
    25   15   16 1
    26   15   26 1
    27   16   27 1
    28   16   28 1
@<TRIPOS>MOLECULE
ZINC05725694
   30    30     0     0     0
SMALL
USER_CHARGES
7-(hydroxymethyl)oxocane-3,4,5,6-tetrol
@<TRIPOS>ATOM
      1 C1         -0.0127    1.0858    0.0080 C.3       1 <0>         0.0831
      2 C2         -0.7481    1.5900   -1.2302 C.3       1 <0>        -0.1230
      3 H1         -1.6587    1.0078   -1.3713 H         1 <0>         0.0853
      4 C3         -1.1104    3.0632   -1.0658 C.3       1 <0>         0.1314
      5 H2         -0.7738    3.6191   -1.9409 H         1 <0>         0.0567
      6 C4         -2.6268    3.2097   -0.9221 C.3       1 <0>         0.0795
      7 H3         -3.1261    2.5759   -1.6549 H         1 <0>         0.0698
      8 C5         -3.0322    2.7829    0.4902 C.3       1 <0>         0.0939
      9 H4         -4.0386    3.1434    0.7029 H         1 <0>         0.0609
     10 C6         -3.0052    1.2609    0.5978 C.3       1 <0>         0.0309
     11 H5         -2.8621    0.8313   -0.3938 H         1 <0>         0.0638
     12 C7         -1.8634    0.8163    1.5072 C.3       1 <0>         0.0288
     13 O1         -0.6789    1.5453    1.1853 O.3       1 <0>        -0.3169
     14 O2         -4.2463    0.8024    1.1376 O.3       1 <0>        -0.5641
     15 O3         -2.1179    3.3411    1.4361 O.3       1 <0>        -0.5045
     16 O4         -2.9985    4.5729   -1.1357 O.3       1 <0>        -0.5577
     17 O5         -0.4711    3.5824    0.1019 O.3       1 <0>        -0.5054
     18 C8          0.1528    1.4267   -2.4561 C.3       1 <0>         0.0808
     19 O6          0.3871    0.0372   -2.6934 O.3       1 <0>        -0.5739
     20 H6          0.0021   -0.0041    0.0020 H         1 <0>         0.0499
     21 H7          1.0102    1.4621    0.0003 H         1 <0>         0.0933
     22 H8         -2.1338    1.0038    2.5463 H         1 <0>         0.0953
     23 H9         -1.6819   -0.2492    1.3665 H         1 <0>         0.0498
     24 H10        -4.3020   -0.1581    1.2350 H         1 <0>         0.3818
     25 H11        -2.3137    3.1118    2.3548 H         1 <0>         0.3625
     26 H12        -3.9482    4.7382   -1.0594 H         1 <0>         0.3828
     27 H13        -0.6570    4.5165    0.2697 H         1 <0>         0.3754
     28 H14        -0.3345    1.8668   -3.3261 H         1 <0>         0.0501
     29 H15         1.1030    1.9303   -2.2783 H         1 <0>         0.0551
     30 H16         0.9520   -0.1415   -3.4576 H         1 <0>         0.3846
@<TRIPOS>BOND
     1    1   13 1
     2    1    2 1
     3    1   20 1
     4    1   21 1
     5    2    3 1
     6    2    4 1
     7    2   18 1
     8    4    5 1
     9    4    6 1
    10    4   17 1
    11    6    7 1
    12    6    8 1
    13    6   16 1
    14    8    9 1
    15    8   10 1
    16    8   15 1
    17   10   11 1
    18   10   12 1
    19   10   14 1
    20   12   13 1
    21   12   22 1
    22   12   23 1
    23   14   24 1
    24   15   25 1
    25   16   26 1
    26   17   27 1
    27   18   19 1
    28   18   28 1
    29   18   29 1
    30   19   30 1
@<TRIPOS>MOLECULE
ZINC37934337
   26    27     0     0     0
SMALL
USER_CHARGES

@<TRIPOS>ATOM
      1 C1         -0.0230    1.3878    0.0157 C.ar      1 <0>        -0.0715
      2 C2          1.1692    2.0981    0.0084 C.ar      1 <0>         0.1935
      3 C3          2.3811    1.4184   -0.0120 C.ar      1 <0>        -0.0621
      4 C4          2.4001    0.0367   -0.0251 C.ar      1 <0>        -0.6345
      5 C5          1.2156   -0.6735   -0.0184 C.ar      1 <0>        -0.0075
      6 C6         -0.0004    0.0001    0.0025 C.ar      1 <0>        -0.1130
      7 S1         -1.5111   -0.9068    0.0116 S.3       1 <0>         0.1204
      8 C7         -1.9697   -0.9881   -1.6877 C.2       1 <0>         0.2404
      9 N1         -3.1195   -1.5002   -2.1778 N.pl3     1 <0>        -0.4612
     10 H1         -3.8463   -1.8905   -1.6676 H         1 <0>         0.4453
     11 N2         -3.0536   -1.3544   -3.5729 N.2       1 <0>        -0.3054
     12 C8         -1.9106   -0.7833   -3.8436 C.2       1 <0>         0.2131
     13 N3         -1.2554   -0.5553   -2.7051 N.2       1 <0>        -0.5317
     14 S2          3.9391   -0.8210   -0.0509 S.o2      1 <0>         2.7023
     15 O1          3.6811   -2.1013   -0.6107 O.2       1 <0>        -0.9565
     16 O2          4.8937    0.0742   -0.6046 O.2       1 <0>        -0.9597
     17 N4          4.3851   -1.0740    1.5237 N.pl3     1 <0>        -1.2490
     18 N5          1.1510    3.4947    0.0211 N.pl3     1 <0>        -0.8725
     19 H2         -0.9662    1.9135    0.0360 H         1 <0>         0.1392
     20 H3          3.3092    1.9707   -0.0180 H         1 <0>         0.1482
     21 H4          1.2339   -1.7533   -0.0293 H         1 <0>         0.1512
     22 H5         -1.5550   -0.5317   -4.8318 H         1 <0>         0.2225
     23 H6          3.8177   -0.7598    2.2449 H         1 <0>         0.4173
     24 H7          5.2137   -1.5365    1.7247 H         1 <0>         0.4225
     25 H8          0.3048    3.9686    0.0351 H         1 <0>         0.4036
     26 H9          1.9846    3.9906    0.0161 H         1 <0>         0.4050
@<TRIPOS>BOND
     1    1    6 ar
     2    1    2 ar
     3    1   19 1
     4    2    3 ar
     5    2   18 1
     6    3    4 ar
     7    3   20 1
     8    4    5 ar
     9    4   14 1
    10    5    6 ar
    11    5   21 1
    12    6    7 1
    13    7    8 1
    14    8   13 2
    15    8    9 1
    16    9   10 1
    17    9   11 1
    18   11   12 2
    19   12   13 1
    20   12   22 1
    21   14   15 2
    22   14   16 2
    23   14   17 1
    24   17   23 1
    25   17   24 1
    26   18   25 1
    27   18   26 1
@<TRIPOS>MOLECULE
ZINC48380177
   34    34     0     0     0
SMALL
USER_CHARGES

@<TRIPOS>ATOM
      1 C1         -0.0187    1.5258    0.0104 C.3       1 <0>        -0.1445
      2 C2          0.0021   -0.0041    0.0020 C.3       1 <0>        -0.1078
      3 H1          0.5123   -0.3556   -0.8948 H         1 <0>         0.1288
      4 C3          0.7309   -0.5033    1.2229 C.2       1 <0>         0.5374
      5 O1          0.1052   -0.8911    2.1862 O.2       1 <0>        -0.4448
      6 N1          2.0785   -0.5187    1.2440 N.am      1 <0>        -0.6851
      7 C4          2.7303   -0.9651    2.3359 C.2       1 <0>         0.6919
      8 O2          2.1030   -1.3539    3.3015 O.2       1 <0>        -0.5243
      9 N2          4.0778   -0.9805    2.3569 N.am      1 <0>        -0.7404
     10 C5          4.7864   -1.4658    3.5438 C.3       1 <0>         0.1019
     11 S1         -1.6997   -0.6320    0.0149 S.3       1 <0>         0.0334
     12 C6         -2.3645   -0.0933   -1.5254 C.ar      1 <0>         0.2418
     13 C7         -3.6948   -0.4035   -1.8581 C.ar      1 <0>        -0.1943
     14 C8         -4.2062    0.0379   -3.0966 C.ar      1 <0>         0.3505
     15 C9         -3.3671    0.7625   -3.9346 C.ar      1 <0>        -0.3298
     16 C10        -2.0646    1.0271   -3.5316 C.ar      1 <0>         0.4759
     17 N3         -1.6092    0.6052   -2.3589 N.ar      1 <0>        -0.5820
     18 N4         -1.2269    1.7494   -4.3672 N.pl3     1 <0>        -0.8385
     19 N5         -5.5120   -0.2442   -3.4683 N.pl3     1 <0>        -0.8463
     20 C11        -4.5157   -1.1542   -0.9563 C.1       1 <0>         0.2586
     21 N6         -5.1669   -1.7497   -0.2409 N.1       1 <0>        -0.4148
     22 H2          1.0039    1.9031    0.0027 H         1 <0>         0.0695
     23 H3         -0.5459    1.8868   -0.8726 H         1 <0>         0.0955
     24 H4         -0.5289    1.8773    0.9072 H         1 <0>         0.0718
     25 H5          2.5791   -0.2084    0.4733 H         1 <0>         0.4116
     26 H6          4.5785   -0.6703    1.5862 H         1 <0>         0.4008
     27 H7          4.5166   -0.8530    4.4039 H         1 <0>         0.0631
     28 H8          4.5082   -2.5023    3.7345 H         1 <0>         0.0631
     29 H9          5.8616   -1.4032    3.3760 H         1 <0>         0.0817
     30 H10        -3.7244    1.1162   -4.8905 H         1 <0>         0.1396
     31 H11        -1.5520    2.0651   -5.2249 H         1 <0>         0.4126
     32 H12        -0.3156    1.9391   -4.0943 H         1 <0>         0.4068
     33 H13        -6.0867   -0.7513   -2.8737 H         1 <0>         0.4061
     34 H14        -5.8507    0.0654   -4.3228 H         1 <0>         0.4101
@<TRIPOS>BOND
     1    1    2 1
     2    1   22 1
     3    1   23 1
     4    1   24 1
     5    2    3 1
     6    2    4 1
     7    2   11 1
     8    4    5 2
     9    4    6 am
    10    6    7 am
    11    6   25 1
    12    7    8 2
    13    7    9 am
    14    9   10 1
    15    9   26 1
    16   10   27 1
    17   10   28 1
    18   10   29 1
    19   11   12 1
    20   12   17 ar
    21   12   13 ar
    22   13   14 ar
    23   13   20 1
    24   14   15 ar
    25   14   19 1
    26   15   16 ar
    27   15   30 1
    28   16   17 ar
    29   16   18 1
    30   18   31 1
    31   18   32 1
    32   19   33 1
    33   19   34 1
    34   20   21 3
@<TRIPOS>MOLECULE
ZINC05602318
   21    21     0     0     0
SMALL
USER_CHARGES
N'-(5-amino-6-chloro-pyrimidin-4-yl)acetohydrazide
@<TRIPOS>ATOM
      1 C1         -1.2136    3.5616    0.0272 C.3       1 <0>        -0.1610
      2 C2         -1.1931    2.0547    0.0189 C.2       1 <0>         0.5101
      3 O1         -2.2351    1.4341    0.0204 O.2       1 <0>        -0.5486
      4 N1         -0.0169    1.3968    0.0097 N.am      1 <0>        -0.5118
      5 N2          0.0021   -0.0041    0.0020 N.pl3     1 <0>        -0.5106
      6 C3          1.2137   -0.6818   -0.0132 C.ar      1 <0>         0.3983
      7 C4          1.2464   -2.0826   -0.0152 C.ar      1 <0>         0.0902
      8 C5          2.4844   -2.7100   -0.0363 C.ar      1 <0>         0.1651
      9 N3          3.5839   -1.9672   -0.0428 N.ar      1 <0>        -0.5091
     10 C6          3.5149   -0.6520   -0.0350 C.ar      1 <0>         0.3089
     11 N4          2.3616   -0.0131   -0.0206 N.ar      1 <0>        -0.5466
     12 Cl1         2.5929   -4.4426   -0.0468 Cl        1 <0>        -0.0113
     13 N5          0.0610   -2.8300   -0.0015 N.pl3     1 <0>        -0.8605
     14 H1         -1.2234    3.9304   -0.9985 H         1 <0>         0.1023
     15 H2         -2.1060    3.9100    0.5471 H         1 <0>         0.1039
     16 H3         -0.3262    3.9342    0.5388 H         1 <0>         0.0873
     17 H4          0.8164    1.8932    0.0044 H         1 <0>         0.4352
     18 H5         -0.8313   -0.5005    0.0073 H         1 <0>         0.4395
     19 H6          4.4307   -0.0795   -0.0411 H         1 <0>         0.2081
     20 H7         -0.7973   -2.3781    0.0096 H         1 <0>         0.4006
     21 H8          0.0987   -3.7993   -0.0030 H         1 <0>         0.4099
@<TRIPOS>BOND
     1    1    2 1
     2    1   14 1
     3    1   15 1
     4    1   16 1
     5    2    3 2
     6    2    4 am
     7    4    5 1
     8    4   17 1
     9    5    6 1
    10    5   18 1
    11    6   11 ar
    12    6    7 ar
    13    7    8 ar
    14    7   13 1
    15    8    9 ar
    16    8   12 1
    17    9   10 ar
    18   10   11 ar
    19   10   19 1
    20   13   20 1
    21   13   21 1
@<TRIPOS>MOLECULE
ZINC29042186
   25    26     0     0     0
SMALL
USER_CHARGES
(5R,6R,7S,8R,8aR)-5,6,7,8-tetrahydroxy-1,5,6,7,8,8a-hexahydrooxazolo[3,4-a]pyridine-3-thione
@<TRIPOS>ATOM
      1 C1         -0.8091    1.6305    1.2043 C.3       1 <0>         0.0368
      2 C2         -0.0127    1.0858    0.0080 C.3       1 <0>         0.0895
      3 H1          0.0424   -0.0128    0.0052 H         1 <0>         0.1328
      4 C3          1.4057    1.6633   -0.0024 C.3       1 <0>         0.1244
      5 H2          1.4093    2.7386    0.2294 H         1 <0>         0.0733
      6 C4          2.0446    1.3742   -1.3643 C.3       1 <0>         0.0991
      7 H3          2.0891    0.2913   -1.5524 H         1 <0>         0.0785
      8 C5          1.2715    2.0823   -2.4771 C.3       1 <0>         0.0963
      9 H4          1.2860    3.1728   -2.3332 H         1 <0>         0.0847
     10 C6         -0.1660    1.5447   -2.5330 C.3       1 <0>         0.3138
     11 H5         -0.8146    2.0832   -3.2397 H         1 <0>         0.1215
     12 N1         -0.7181    1.6251   -1.1736 N.pl3     1 <0>        -0.5787
     13 C7         -1.8592    2.1888   -0.7744 C.2       1 <0>         0.5052
     14 S1         -3.0564    2.7538   -1.8600 S.2       1 <0>        -0.5255
     15 O1         -1.9790    2.2700    0.5590 O.3       1 <0>        -0.2768
     16 O2         -0.1597    0.1864   -2.9767 O.3       1 <0>        -0.5776
     17 O3          1.9162    1.8434   -3.7299 O.3       1 <0>        -0.5789
     18 O4          3.3966    1.8369   -1.3598 O.3       1 <0>        -0.5938
     19 O5          2.1803    1.0502    1.0301 O.3       1 <0>        -0.5867
     20 H6         -0.2495    2.3839    1.7780 H         1 <0>         0.1229
     21 H7         -1.1533    0.8350    1.8816 H         1 <0>         0.1300
     22 H8         -1.1069   -0.3637   -3.0774 H         1 <0>         0.4252
     23 H9          1.5020    2.2754   -4.6528 H         1 <0>         0.4234
     24 H10         4.0221    1.7164   -2.2566 H         1 <0>         0.4278
     25 H11         3.2311    1.3410    1.1756 H         1 <0>         0.4330
@<TRIPOS>BOND
     1    1   15 1
     2    1    2 1
     3    1   20 1
     4    1   21 1
     5    2    3 1
     6    2   12 1
     7    2    4 1
     8    4    5 1
     9    4    6 1
    10    4   19 1
    11    6    7 1
    12    6    8 1
    13    6   18 1
    14    8    9 1
    15    8   10 1
    16    8   17 1
    17   10   11 1
    18   10   12 1
    19   10   16 1
    20   12   13 1
    21   13   14 2
    22   13   15 1
    23   16   22 1
    24   17   23 1
    25   18   24 1
    26   19   25 1
@<TRIPOS>MOLECULE
ZINC39084542
   24    24     0     0     0
SMALL
USER_CHARGES

@<TRIPOS>ATOM
      1 C1          0.1719    1.4566   -0.0098 C.3       1 <0>         0.0848
      2 N1          0.0858   -0.0059   -0.0067 N.pl3     1 <0>        -0.2342
      3 C2         -0.0906   -0.7866   -1.1229 C.2       1 <0>        -0.1467
      4 C3         -0.1166   -2.1038   -0.6786 C.2       1 <0>         0.2183
      5 C4          0.0521   -2.0224    0.7265 C.2       1 <0>        -0.0675
      6 N2          0.1696   -0.7458    1.0389 N.2       1 <0>        -0.1850
      7 C5          0.0942   -3.1565    1.6659 C.2       1 <0>         0.5622
      8 O1         -0.0218   -4.2931    1.2518 O.2       1 <0>        -0.5086
      9 O2          0.2612   -2.9335    2.9844 O.3       1 <0>        -0.3368
     10 C6          0.2925   -4.0796    3.8374 C.3       1 <0>         0.0335
     11 N3         -0.2742   -3.2502   -1.4448 N.pl3     1 <0>        -0.8361
     12 C7         -0.2250   -0.3237   -2.5059 C.2       1 <0>         0.6073
     13 O3         -1.3303   -0.1464   -2.9837 O.2       1 <0>        -0.5192
     14 N4          0.8753   -0.0940   -3.2496 N.am      1 <0>        -0.8400
     15 H1          1.2183    1.7588   -0.0521 H         1 <0>         0.0942
     16 H2         -0.3554    1.8497   -0.8790 H         1 <0>         0.0981
     17 H3         -0.2832    1.8492    0.8995 H         1 <0>         0.1065
     18 H4          1.1171   -4.7289    3.5434 H         1 <0>         0.0628
     19 H5          0.4319   -3.7602    4.8701 H         1 <0>         0.1056
     20 H6         -0.6478   -4.6239    3.7492 H         1 <0>         0.0629
     21 H7         -0.3825   -3.1799   -2.4061 H         1 <0>         0.4039
     22 H8         -0.2760   -4.1217   -1.0189 H         1 <0>         0.4181
     23 H9          1.7532   -0.3039   -2.8945 H         1 <0>         0.4062
     24 H10         0.7893    0.2812   -4.1400 H         1 <0>         0.4094
@<TRIPOS>BOND
     1    1    2 1
     2    1   15 1
     3    1   16 1
     4    1   17 1
     5    2    6 1
     6    2    3 1
     7    3    4 2
     8    3   12 1
     9    4    5 1
    10    4   11 1
    11    5    6 2
    12    5    7 1
    13    7    8 2
    14    7    9 1
    15    9   10 1
    16   10   18 1
    17   10   19 1
    18   10   20 1
    19   11   21 1
    20   11   22 1
    21   12   13 2
    22   12   14 am
    23   14   23 1
    24   14   24 1
@<TRIPOS>MOLECULE
ZINC42430297
   38    38     0     0     0
SMALL
USER_CHARGES

@<TRIPOS>ATOM
      1 C1         -0.0210    1.5266    0.0060 C.3       1 <0>        -0.1400
      2 C2          0.0006   -0.0032   -0.0010 C.3       1 <0>        -0.0896
      3 C3          0.7410   -0.5085    1.2389 C.3       1 <0>        -0.1413
      4 C4         -1.4345   -0.5336    0.0106 C.3       1 <0>         0.0928
      5 H1         -1.9448   -0.1815    0.9072 H         1 <0>         0.0840
      6 C5         -2.1639   -0.0359   -1.2106 C.2       1 <0>         0.4925
      7 O1         -2.1471   -0.6900   -2.2394 O.co2     1 <0>        -0.6969
      8 O2         -2.7707    1.0208   -1.1699 O.co2     1 <0>        -0.6836
      9 N1         -1.4139   -1.9984    0.0040 N.am      1 <0>        -0.6980
     10 C6         -2.4573   -2.6894    0.5044 C.2       1 <0>         0.7081
     11 O3         -3.3736   -2.1003    1.0444 O.2       1 <0>        -0.5834
     12 N2         -2.4849   -4.0332    0.4062 N.am      1 <0>        -0.6325
     13 C7         -1.3347   -4.7679   -0.1378 C.3       1 <0>         0.1047
     14 C8         -1.8197   -5.6696   -1.2774 C.3       1 <0>        -0.1348
     15 C9         -2.9527   -6.5635   -0.7682 C.3       1 <0>        -0.1359
     16 C10        -4.1246   -5.6929   -0.3090 C.3       1 <0>         0.0026
     17 H2         -4.4672   -5.0763   -1.1399 H         1 <0>         0.1483
     18 C11        -3.6635   -4.7919    0.8467 C.3       1 <0>         0.1181
     19 N3         -5.2240   -6.5527    0.1494 N.4       1 <0>        -0.6304
     20 H3          1.0014    1.9044   -0.0023 H         1 <0>         0.0490
     21 H4         -0.5485    1.8865   -0.8774 H         1 <0>         0.0724
     22 H5         -0.5312    1.8787    0.9025 H         1 <0>         0.0539
     23 H6          0.5108   -0.3554   -0.8975 H         1 <0>         0.0698
     24 H7          0.2308   -0.1564    2.1355 H         1 <0>         0.0530
     25 H8          0.7564   -1.5984    1.2340 H         1 <0>         0.0450
     26 H9          1.7634   -0.1307    1.2307 H         1 <0>         0.0532
     27 H10        -0.6493   -2.4710   -0.3606 H         1 <0>         0.3890
     28 H11        -0.5973   -4.0616   -0.5193 H         1 <0>         0.0939
     29 H12        -0.8872   -5.3787    0.6463 H         1 <0>         0.0747
     30 H13        -2.1840   -5.0531   -2.0992 H         1 <0>         0.0862
     31 H14        -0.9947   -6.2909   -1.6260 H         1 <0>         0.0969
     32 H15        -3.2830   -7.2234   -1.5704 H         1 <0>         0.0888
     33 H16        -2.5946   -7.1618    0.0696 H         1 <0>         0.0876
     34 H17        -3.4021   -5.4047    1.7095 H         1 <0>         0.0812
     35 H18        -4.4631   -4.1016    1.1151 H         1 <0>         0.1150
     36 H19        -4.9067   -7.1226    0.9192 H         1 <0>         0.4310
     37 H20        -5.9963   -5.9783    0.4521 H         1 <0>         0.4385
     38 H21        -5.5240   -7.1477   -0.6083 H         1 <0>         0.4358
@<TRIPOS>BOND
     1    1    2 1
     2    1   20 1
     3    1   21 1
     4    1   22 1
     5    2    3 1
     6    2    4 1
     7    2   23 1
     8    3   24 1
     9    3   25 1
    10    3   26 1
    11    4    5 1
    12    4    6 1
    13    4    9 1
    14    6    7 2
    15    6    8 1
    16    9   10 am
    17    9   27 1
    18   10   11 2
    19   10   12 am
    20   12   18 1
    21   12   13 1
    22   13   14 1
    23   13   28 1
    24   13   29 1
    25   14   15 1
    26   14   30 1
    27   14   31 1
    28   15   16 1
    29   15   32 1
    30   15   33 1
    31   16   17 1
    32   16   18 1
    33   16   19 1
    34   18   34 1
    35   18   35 1
    36   19   36 1
    37   19   37 1
    38   19   38 1
@<TRIPOS>MOLECULE
ZINC50244610
   45    46     0     0     0
SMALL
USER_CHARGES

@<TRIPOS>ATOM
      1 C1         -0.0187    1.5258    0.0104 C.3       1 <0>        -0.1509
      2 C2          0.0021   -0.0041    0.0020 C.3       1 <0>        -0.1181
      3 C3         -1.4333   -0.5336    0.0129 C.3       1 <0>        -0.0712
      4 C4         -2.1352   -0.1312   -1.2857 C.3       1 <0>        -0.1219
      5 C5         -3.5706   -0.6608   -1.2748 C.3       1 <0>        -0.0981
      6 C6         -3.5506   -2.1862   -1.1575 C.3       1 <0>         0.1173
      7 C7         -2.8486   -2.5886    0.1411 C.3       1 <0>        -0.1027
      8 C8         -1.4133   -2.0590    0.1302 C.3       1 <0>        -0.1237
      9 C9         -2.8084   -2.7706   -2.3316 C.2       1 <0>         0.5051
     10 O1         -1.6413   -2.4746   -2.5237 O.co2     1 <0>        -0.6747
     11 O2         -3.3750   -3.5394   -3.0895 O.co2     1 <0>        -0.6817
     12 N1         -4.9250   -2.6932   -1.1471 N.am      1 <0>        -0.7085
     13 C10        -5.1538   -4.0179   -1.0503 C.2       1 <0>         0.7326
     14 O3         -4.2196   -4.7921   -0.9716 O.2       1 <0>        -0.5488
     15 N2         -6.4182   -4.4844   -1.0407 N.am      1 <0>        -0.6441
     16 C11        -7.6348   -3.6644   -1.1352 C.3       1 <0>         0.0983
     17 C12        -8.8412   -4.6237   -1.0577 C.3       1 <0>        -0.1420
     18 C13        -8.2469   -5.8732   -0.3556 C.3       1 <0>         0.0021
     19 H1         -8.2295   -5.7421    0.7264 H         1 <0>         0.1588
     20 C14        -6.8103   -5.9020   -0.9402 C.3       1 <0>         0.1179
     21 N3         -8.9882   -7.0867   -0.7243 N.4       1 <0>        -0.6260
     22 H2          1.0039    1.9031    0.0027 H         1 <0>         0.0476
     23 H3         -0.5459    1.8868   -0.8726 H         1 <0>         0.0557
     24 H4         -0.5289    1.8773    0.9072 H         1 <0>         0.0467
     25 H5          0.5123   -0.3556   -0.8948 H         1 <0>         0.0675
     26 H6          0.5293   -0.3651    0.8851 H         1 <0>         0.0533
     27 H7         -1.9701   -0.1109    0.8621 H         1 <0>         0.0483
     28 H8         -2.1495    0.9555   -1.3693 H         1 <0>         0.0482
     29 H9         -1.5984   -0.5539   -2.1349 H         1 <0>         0.1099
     30 H10        -4.1074   -0.2381   -0.4256 H         1 <0>         0.0472
     31 H11        -4.0707   -0.3741   -2.1999 H         1 <0>         0.0544
     32 H12        -3.3855   -2.1659    0.9903 H         1 <0>         0.0365
     33 H13        -2.8344   -3.6753    0.2247 H         1 <0>         0.0709
     34 H14        -0.8764   -2.4817   -0.7190 H         1 <0>         0.1085
     35 H15        -0.9132   -2.3457    1.0553 H         1 <0>         0.0412
     36 H16        -5.6703   -2.0756   -1.2099 H         1 <0>         0.3804
     37 H17        -7.6701   -2.9567   -0.3069 H         1 <0>         0.0782
     38 H18        -7.6478   -3.1284   -2.0843 H         1 <0>         0.0826
     39 H19        -9.6416   -4.1891   -0.4589 H         1 <0>         0.1087
     40 H20        -9.1983   -4.8757   -2.0562 H         1 <0>         0.0984
     41 H21        -6.8086   -6.3669   -1.9260 H         1 <0>         0.0807
     42 H22        -6.1381   -6.4347   -0.2675 H         1 <0>         0.1031
     43 H23        -8.9369   -7.2218   -1.7229 H         1 <0>         0.4355
     44 H24        -8.5833   -7.8835   -0.2559 H         1 <0>         0.4393
     45 H25        -9.9534   -6.9884   -0.4473 H         1 <0>         0.4373
@<TRIPOS>BOND
     1    1    2 1
     2    1   22 1
     3    1   23 1
     4    1   24 1
     5    2    3 1
     6    2   25 1
     7    2   26 1
     8    3    8 1
     9    3    4 1
    10    3   27 1
    11    4    5 1
    12    4   28 1
    13    4   29 1
    14    5    6 1
    15    5   30 1
    16    5   31 1
    17    6    7 1
    18    6    9 1
    19    6   12 1
    20    7    8 1
    21    7   32 1
    22    7   33 1
    23    8   34 1
    24    8   35 1
    25    9   10 2
    26    9   11 1
    27   12   13 am
    28   12   36 1
    29   13   14 2
    30   13   15 am
    31   15   20 1
    32   15   16 1
    33   16   17 1
    34   16   37 1
    35   16   38 1
    36   17   18 1
    37   17   39 1
    38   17   40 1
    39   18   19 1
    40   18   20 1
    41   18   21 1
    42   20   41 1
    43   20   42 1
    44   21   43 1
    45   21   44 1
    46   21   45 1
@<TRIPOS>MOLECULE
ZINC04226156
   45    46     0     0     0
SMALL
USER_CHARGES
N-[1-(aminocarbamoyl)-2-(4-isopropylphenyl)-vinyl]-2,4-dichloro-benzamide
@<TRIPOS>ATOM
      1 C1          4.8790    3.0973   -3.6126 C.3       1 <0>        -0.1456
      2 C2          4.7779    3.3436   -2.1059 C.3       1 <0>        -0.0592
      3 C3          4.7654    4.8493   -1.8350 C.3       1 <0>        -0.1446
      4 C4          3.5066    2.7281   -1.5805 C.ar      1 <0>        -0.0673
      5 C5          3.5684    1.7453   -0.6080 C.ar      1 <0>        -0.1223
      6 C6          2.4097    1.1772   -0.1221 C.ar      1 <0>        -0.0994
      7 C7          1.1697    1.5967   -0.6148 C.ar      1 <0>        -0.0699
      8 C8          1.1160    2.5863   -1.6018 C.ar      1 <0>        -0.1056
      9 C9          2.2834    3.1489   -2.0728 C.ar      1 <0>        -0.1063
     10 C10        -0.0714    0.9959   -0.1019 C.2       1 <0>        -0.1242
     11 C11        -1.1754    1.7603    0.0622 C.2       1 <0>         0.0866
     12 C12        -1.1068    3.2106   -0.1705 C.2       1 <0>         0.5902
     13 O1         -1.5229    3.6797   -1.2130 O.2       1 <0>        -0.5043
     14 N1         -0.5828    4.0202    0.7710 N.am      1 <0>        -0.5635
     15 N2         -0.6119    5.3751    0.5998 N.3       1 <0>        -0.5955
     16 N3         -2.3814    1.1715    0.4531 N.am      1 <0>        -0.6508
     17 C13        -3.4711    1.9382    0.6560 C.2       1 <0>         0.5483
     18 O2         -3.4331    3.1272    0.4046 O.2       1 <0>        -0.4695
     19 C14        -4.7111    1.3342    1.1836 C.ar      1 <0>        -0.1299
     20 C15        -4.7580   -0.0314    1.4734 C.ar      1 <0>        -0.0600
     21 C16        -5.9182   -0.5894    1.9656 C.ar      1 <0>        -0.1128
     22 C17        -7.0375    0.2008    2.1734 C.ar      1 <0>         0.0038
     23 C18        -6.9988    1.5549    1.8886 C.ar      1 <0>        -0.1117
     24 C19        -5.8409    2.1275    1.4005 C.ar      1 <0>         0.0285
     25 Cl1        -5.7910    3.8272    1.0509 Cl        1 <0>        -0.0102
     26 Cl2        -8.4947   -0.5107    2.7931 Cl        1 <0>        -0.0410
     27 H1          4.0227    3.5494   -4.1129 H         1 <0>         0.0576
     28 H2          5.7985    3.5425   -3.9926 H         1 <0>         0.0587
     29 H3          4.8879    2.0246   -3.8056 H         1 <0>         0.0558
     30 H4          5.6342    2.8914   -1.6056 H         1 <0>         0.0769
     31 H5          4.6934    5.0248   -0.7616 H         1 <0>         0.0555
     32 H6          5.6849    5.2945   -2.2150 H         1 <0>         0.0581
     33 H7          3.9091    5.3015   -2.3353 H         1 <0>         0.0583
     34 H8          4.5266    1.4222   -0.2288 H         1 <0>         0.1220
     35 H9          2.4595    0.4102    0.6365 H         1 <0>         0.1237
     36 H10         0.1626    2.9120   -1.9906 H         1 <0>         0.1404
     37 H11         2.2435    3.9166   -2.8315 H         1 <0>         0.1217
     38 H12        -0.1024   -0.0563    0.1395 H         1 <0>         0.1385
     39 H13        -0.1852    3.6407    1.5703 H         1 <0>         0.3970
     40 H14        -1.5553    5.7007    0.4514 H         1 <0>         0.3495
     41 H15        -0.1852    5.8477    1.3825 H         1 <0>         0.3559
     42 H16        -2.4340    0.2110    0.5783 H         1 <0>         0.4148
     43 H17        -3.8866   -0.6488    1.3124 H         1 <0>         0.1458
     44 H18        -5.9550   -1.6451    2.1902 H         1 <0>         0.1512
     45 H19        -7.8743    2.1655    2.0531 H         1 <0>         0.1546
@<TRIPOS>BOND
     1    1    2 1
     2    1   27 1
     3    1   28 1
     4    1   29 1
     5    2    3 1
     6    2    4 1
     7    2   30 1
     8    3   31 1
     9    3   32 1
    10    3   33 1
    11    4    9 ar
    12    4    5 ar
    13    5    6 ar
    14    5   34 1
    15    6    7 ar
    16    6   35 1
    17    7    8 ar
    18    7   10 1
    19    8    9 ar
    20    8   36 1
    21    9   37 1
    22   10   11 2
    23   10   38 1
    24   11   12 1
    25   11   16 1
    26   12   13 2
    27   12   14 am
    28   14   15 1
    29   14   39 1
    30   15   40 1
    31   15   41 1
    32   16   17 am
    33   16   42 1
    34   17   18 2
    35   17   19 1
    36   19   24 ar
    37   19   20 ar
    38   20   21 ar
    39   20   43 1
    40   21   22 ar
    41   21   44 1
    42   22   23 ar
    43   22   26 1
    44   23   24 ar
    45   23   45 1
    46   24   25 1
@<TRIPOS>MOLECULE
ZINC29616344
   39    40     0     0     0
SMALL
USER_CHARGES
(E)-3-(3-chloro-4-methyl-phenyl)-N-(3-ureidophenyl)prop-2-enamide
@<TRIPOS>ATOM
      1 C1         11.1310   -0.4921   -0.9038 C.3       1 <0>        -0.1240
      2 C2          9.7800    0.1613   -0.7663 C.ar      1 <0>        -0.0613
      3 C3          9.6842    1.5413   -0.7193 C.ar      1 <0>        -0.1106
      4 C4          8.4520    2.1467   -0.5931 C.ar      1 <0>        -0.0840
      5 C5          7.2963    1.3632   -0.5125 C.ar      1 <0>        -0.0725
      6 C6          7.4005   -0.0303   -0.5553 C.ar      1 <0>        -0.0883
      7 C7          8.6406   -0.6219   -0.6872 C.ar      1 <0>        -0.0413
      8 Cl1         8.7729   -2.3519   -0.7472 Cl        1 <0>        -0.0615
      9 C8          5.9772    2.0024   -0.3772 C.2       1 <0>        -0.0136
     10 C9          4.8652    1.2439   -0.2998 C.2       1 <0>        -0.2150
     11 C10         3.5535    1.8796   -0.1653 C.2       1 <0>         0.5500
     12 O1          3.4666    3.0928   -0.1233 O.2       1 <0>        -0.5272
     13 N1          2.4419    1.1213   -0.0879 N.am      1 <0>        -0.6803
     14 C11         1.1822    1.7276   -0.0669 C.ar      1 <0>         0.1686
     15 C12         0.1475    1.1564    0.6641 C.ar      1 <0>        -0.1639
     16 C13        -1.0971    1.7551    0.6857 C.ar      1 <0>        -0.0817
     17 C14        -1.3177    2.9229   -0.0194 C.ar      1 <0>        -0.1381
     18 C15        -0.2860    3.5022   -0.7469 C.ar      1 <0>         0.1876
     19 C16         0.9639    2.9004   -0.7755 C.ar      1 <0>        -0.1533
     20 N2         -0.5086    4.6883   -1.4555 N.am      1 <0>        -0.6989
     21 C17        -1.3349    5.6277   -0.9543 C.2       1 <0>         0.7086
     22 O2         -1.9516    5.4106    0.0708 O.2       1 <0>        -0.5853
     23 N3         -1.4776    6.8079   -1.5894 N.am      1 <0>        -0.8869
     24 H1         11.9100    0.2830   -0.9513 H         1 <0>         0.0732
     25 H2         11.1554   -1.0934   -1.8246 H         1 <0>         0.0785
     26 H3         11.3136   -1.1428   -0.0359 H         1 <0>         0.0785
     27 H4         10.5772    2.1455   -0.7819 H         1 <0>         0.1376
     28 H5          8.3794    3.2237   -0.5562 H         1 <0>         0.1364
     29 H6          6.5129   -0.6420   -0.4891 H         1 <0>         0.1385
     30 H7          5.8987    3.0989   -0.3392 H         1 <0>         0.1443
     31 H8          4.9437    0.1474   -0.3377 H         1 <0>         0.1352
     32 H9          2.5258    0.0255   -0.0413 H         1 <0>         0.4368
     33 H10         0.3167    0.2437    1.2162 H         1 <0>         0.1258
     34 H11        -1.8997    1.3093    1.2545 H         1 <0>         0.1292
     35 H12        -2.2922    3.3882   -0.0010 H         1 <0>         0.1396
     36 H13         1.7664    3.3463   -1.3444 H         1 <0>         0.1353
     37 H14        -0.0092    4.8539   -2.4215 H         1 <0>         0.4275
     38 H15        -2.1520    7.5746   -1.1803 H         1 <0>         0.4412
     39 H16        -0.9197    7.0044   -2.5168 H         1 <0>         0.4155
@<TRIPOS>BOND
     1    1    2 1
     2    1   24 1
     3    1   25 1
     4    1   26 1
     5    2    7 ar
     6    2    3 ar
     7    3    4 ar
     8    3   27 1
     9    4    5 ar
    10    4   28 1
    11    5    6 ar
    12    5    9 1
    13    6    7 ar
    14    6   29 1
    15    7    8 1
    16    9   10 2
    17    9   30 1
    18   10   11 1
    19   10   31 1
    20   11   12 2
    21   11   13 am
    22   13   14 1
    23   13   32 1
    24   14   19 ar
    25   14   15 ar
    26   15   16 ar
    27   15   33 1
    28   16   17 ar
    29   16   34 1
    30   17   18 ar
    31   17   35 1
    32   18   19 ar
    33   18   20 1
    34   19   36 1
    35   20   21 am
    36   20   37 1
    37   21   22 2
    38   21   23 am
    39   23   38 1
    40   23   39 1
@<TRIPOS>MOLECULE
ZINC40703251
   45    47     0     0     0
SMALL
USER_CHARGES

@<TRIPOS>ATOM
      1 C1         -0.9328    1.1286   -0.0063 C.3       1 <0>        -0.1137
      2 C2         -0.1798   -0.1766    0.0160 C.ar      1 <0>        -0.1173
      3 C3          0.0685   -0.8516   -1.1632 C.ar      1 <0>        -0.0879
      4 C4          0.7598   -2.0500   -1.1434 C.ar      1 <0>        -0.0563
      5 C5          1.2044   -2.5758    0.0573 C.ar      1 <0>        -0.0918
      6 C6          0.9593   -1.9051    1.2391 C.ar      1 <0>        -0.1096
      7 C7          0.2700   -0.6990    1.2217 C.ar      1 <0>         0.1764
      8 N1          0.0251   -0.0150    2.4162 N.pl3     1 <0>        -0.6511
      9 C8         -0.0590   -0.7160    3.6140 C.ar      1 <0>         0.3846
     10 C9         -0.1683   -0.0350    4.8278 C.ar      1 <0>         0.0052
     11 C10        -0.2500   -0.7874    6.0008 C.ar      1 <0>         0.4115
     12 N2         -0.2207   -2.1155    5.9181 N.ar      1 <0>        -0.5648
     13 C11        -0.1165   -2.7193    4.7516 C.ar      1 <0>         0.3240
     14 N3         -0.0420   -2.0469    3.6209 N.ar      1 <0>        -0.5606
     15 N4         -0.3597   -0.1595    7.2358 N.pl3     1 <0>        -0.7104
     16 C12        -0.4447   -0.9602    8.4597 C.3       1 <0>         0.1989
     17 H1         -1.0047   -1.8734    8.2583 H         1 <0>         0.1005
     18 C13         0.9652   -1.3203    8.9324 C.3       1 <0>        -0.1567
     19 C14        -1.1465   -0.1667    9.5315 C.ar      1 <0>        -0.0931
     20 C15        -0.8909    1.1848    9.6700 C.ar      1 <0>        -0.1174
     21 C16        -1.5347    1.9127   10.6532 C.ar      1 <0>        -0.1157
     22 C17        -2.4344    1.2893   11.4974 C.ar      1 <0>        -0.1189
     23 C18        -2.6907   -0.0619   11.3582 C.ar      1 <0>        -0.1143
     24 C19        -2.0501   -0.7890   10.3723 C.ar      1 <0>        -0.1068
     25 N5         -0.1950    1.3684    4.8677 N.pl3     1 <0>        -0.8761
     26 Cl1         1.0697   -2.8960   -2.6273 Cl        1 <0>        -0.0749
     27 H2         -0.2285    1.9525   -0.1216 H         1 <0>         0.0720
     28 H3         -1.6332    1.1298   -0.8415 H         1 <0>         0.0744
     29 H4         -1.4814    1.2476    0.9281 H         1 <0>         0.0626
     30 H5         -0.2775   -0.4438   -2.1014 H         1 <0>         0.1339
     31 H6          1.7431   -3.5118    0.0698 H         1 <0>         0.1343
     32 H7          1.3064   -2.3158    2.1757 H         1 <0>         0.1549
     33 H8         -0.0862    0.9485    2.4093 H         1 <0>         0.4134
     34 H9         -0.0953   -3.7987    4.7211 H         1 <0>         0.1973
     35 H10        -0.3800    0.8089    7.2874 H         1 <0>         0.4018
     36 H11         0.9020   -1.9161    9.8430 H         1 <0>         0.0667
     37 H12         1.4728   -1.8943    8.1572 H         1 <0>         0.0669
     38 H13         1.5252   -0.4071    9.1338 H         1 <0>         0.0542
     39 H14        -0.1880    1.6718    9.0105 H         1 <0>         0.1167
     40 H15        -1.3344    2.9684   10.7619 H         1 <0>         0.1234
     41 H16        -2.9369    1.8579   12.2660 H         1 <0>         0.1234
     42 H17        -3.3934   -0.5491   12.0180 H         1 <0>         0.1252
     43 H18        -2.2532   -1.8439   10.2612 H         1 <0>         0.1258
     44 H19        -0.1370    1.8782    4.0445 H         1 <0>         0.3941
     45 H20        -0.2713    1.8281    5.7184 H         1 <0>         0.3954
@<TRIPOS>BOND
     1    1    2 1
     2    1   27 1
     3    1   28 1
     4    1   29 1
     5    2    7 ar
     6    2    3 ar
     7    3    4 ar
     8    3   30 1
     9    4    5 ar
    10    4   26 1
    11    5    6 ar
    12    5   31 1
    13    6    7 ar
    14    6   32 1
    15    7    8 1
    16    8    9 1
    17    8   33 1
    18    9   14 ar
    19    9   10 ar
    20   10   11 ar
    21   10   25 1
    22   11   12 ar
    23   11   15 1
    24   12   13 ar
    25   13   14 ar
    26   13   34 1
    27   15   16 1
    28   15   35 1
    29   16   17 1
    30   16   18 1
    31   16   19 1
    32   18   36 1
    33   18   37 1
    34   18   38 1
    35   19   24 ar
    36   19   20 ar
    37   20   21 ar
    38   20   39 1
    39   21   22 ar
    40   21   40 1
    41   22   23 ar
    42   22   41 1
    43   23   24 ar
    44   23   42 1
    45   24   43 1
    46   25   44 1
    47   25   45 1
@<TRIPOS>MOLECULE
ZINC40761251
   36    38     0     0     0
SMALL
USER_CHARGES

@<TRIPOS>ATOM
      1 C1          0.2587    3.0870    0.2148 C.2       1 <0>        -0.2187
      2 C2          1.6576    3.2907    0.2384 C.2       1 <0>        -0.1804
      3 C3          2.2299    2.0822    0.0927 C.2       1 <0>        -0.0444
      4 O1          1.2573    1.1625   -0.0173 O.3       1 <0>        -0.1714
      5 C4          0.0599    1.7662    0.0561 C.2       1 <0>        -0.0264
      6 C5          3.7111    1.8068    0.0581 C.3       1 <0>         0.2204
      7 N1          4.1925    1.5530    1.4183 N.pl3     1 <0>        -0.7143
      8 C6          5.5357    1.2731    1.6391 C.ar      1 <0>         0.4106
      9 C7          6.0050    1.0237    2.9304 C.ar      1 <0>         0.0147
     10 C8          7.3631    0.7474    3.0961 C.ar      1 <0>         0.3812
     11 N2          8.1533    0.7322    2.0249 N.ar      1 <0>        -0.5593
     12 C9          7.6699    0.9731    0.8233 C.ar      1 <0>         0.3265
     13 N3          6.3935    1.2331    0.6227 N.ar      1 <0>        -0.5634
     14 N4          7.8826    0.4924    4.3604 N.pl3     1 <0>        -0.6473
     15 C10         9.2629    0.3538    4.5341 C.ar      1 <0>         0.1989
     16 C11        10.1401    0.9336    3.6269 C.ar      1 <0>        -0.1151
     17 C12        11.5042    0.7950    3.8018 C.ar      1 <0>        -0.0057
     18 C13        11.9961    0.0789    4.8793 C.ar      1 <0>        -0.1285
     19 C14        11.1253   -0.4995    5.7842 C.ar      1 <0>        -0.0715
     20 C15         9.7603   -0.3599    5.6183 C.ar      1 <0>        -0.0820
     21 Cl1         8.6681   -1.0810    6.7587 Cl        1 <0>        -0.0631
     22 Cl2        12.6017    1.5194    2.6684 Cl        1 <0>        -0.0567
     23 N5          5.1347    1.0506    4.0320 N.pl3     1 <0>        -0.8745
     24 H1         -0.5039    3.8458    0.3106 H         1 <0>         0.1517
     25 H2          2.1686    4.2355    0.3511 H         1 <0>         0.1511
     26 H3         -0.9000    1.2745   -0.0021 H         1 <0>         0.2059
     27 H4          3.9039    0.9332   -0.5645 H         1 <0>         0.0850
     28 H5          4.2316    2.6703   -0.3562 H         1 <0>         0.0994
     29 H6          3.5737    1.5802    2.1648 H         1 <0>         0.4068
     30 H7          8.3394    0.9527   -0.0239 H         1 <0>         0.2004
     31 H8          7.2873    0.4107    5.1219 H         1 <0>         0.4173
     32 H9          9.7569    1.4919    2.7855 H         1 <0>         0.1724
     33 H10        13.0623   -0.0285    5.0134 H         1 <0>         0.1424
     34 H11        11.5123   -1.0576    6.6239 H         1 <0>         0.1453
     35 H12         4.1932    1.2444    3.9017 H         1 <0>         0.3974
     36 H13         5.4750    0.8754    4.9234 H         1 <0>         0.3953
@<TRIPOS>BOND
     1    1    5 2
     2    1    2 1
     3    1   24 1
     4    2    3 2
     5    2   25 1
     6    3    4 1
     7    3    6 1
     8    4    5 1
     9    5   26 1
    10    6    7 1
    11    6   27 1
    12    6   28 1
    13    7    8 1
    14    7   29 1
    15    8   13 ar
    16    8    9 ar
    17    9   10 ar
    18    9   23 1
    19   10   11 ar
    20   10   14 1
    21   11   12 ar
    22   12   13 ar
    23   12   30 1
    24   14   15 1
    25   14   31 1
    26   15   20 ar
    27   15   16 ar
    28   16   17 ar
    29   16   32 1
    30   17   18 ar
    31   17   22 1
    32   18   19 ar
    33   18   33 1
    34   19   20 ar
    35   19   34 1
    36   20   21 1
    37   23   35 1
    38   23   36 1
@<TRIPOS>MOLECULE
ZINC40800280
   35    37     0     0     0
SMALL
USER_CHARGES

@<TRIPOS>ATOM
      1 C1          0.0705    1.2539    0.6791 C.ar      1 <0>        -0.1460
      2 C2          1.2728    1.9432    0.6759 C.ar      1 <0>        -0.0635
      3 C3          2.3766    1.3451    0.0747 C.ar      1 <0>         0.1342
      4 C4          2.2330    0.0854   -0.4972 C.ar      1 <0>         0.1398
      5 N1          1.0699   -0.5353   -0.4717 N.ar      1 <0>        -0.4578
      6 C5          0.0059    0.0054    0.0905 C.ar      1 <0>         0.0956
      7 Cl1         3.5978   -0.6767   -1.2523 Cl        1 <0>        -0.0333
      8 N2          3.6112    2.0011    0.0456 N.pl3     1 <0>        -0.6460
      9 C6          3.6604    3.3851   -0.0771 C.ar      1 <0>         0.3930
     10 C7          4.8855    4.0424   -0.2063 C.ar      1 <0>         0.0288
     11 C8          4.8778    5.4333   -0.3262 C.ar      1 <0>         0.3910
     12 N3          3.7115    6.0751   -0.3129 N.ar      1 <0>        -0.5533
     13 C9          2.5774    5.4162   -0.1890 C.ar      1 <0>         0.3242
     14 N4          2.5400    4.1036   -0.0788 N.ar      1 <0>        -0.5561
     15 N5          6.0694    6.1372   -0.4570 N.pl3     1 <0>        -0.6463
     16 C10         6.0602    7.5374   -0.4465 C.ar      1 <0>         0.1315
     17 C11         5.0260    8.2212    0.1777 C.ar      1 <0>        -0.0754
     18 C12         5.0186    9.6027    0.1869 C.ar      1 <0>        -0.1356
     19 C13         6.0417   10.3065   -0.4257 C.ar      1 <0>         0.1041
     20 C14         7.0749    9.6280   -1.0497 C.ar      1 <0>        -0.1661
     21 C15         7.0902    8.2452   -1.0565 C.ar      1 <0>         0.0855
     22 F1          8.1015    7.5828   -1.6596 F         1 <0>        -0.1324
     23 F2          6.0316   11.6574   -0.4149 F         1 <0>        -0.1320
     24 N6          6.0918    3.3244   -0.2148 N.pl3     1 <0>        -0.8721
     25 H1         -0.8053    1.6858    1.1406 H         1 <0>         0.1477
     26 H2          1.3514    2.9207    1.1285 H         1 <0>         0.1656
     27 H3         -0.9289   -0.5354    0.0906 H         1 <0>         0.1675
     28 H4          4.4334    1.4905    0.1111 H         1 <0>         0.4181
     29 H5          1.6494    5.9686   -0.1817 H         1 <0>         0.2042
     30 H6          6.9072    5.6584   -0.5554 H         1 <0>         0.4187
     31 H7          4.2272    7.6735    0.6555 H         1 <0>         0.1707
     32 H8          4.2136   10.1345    0.6723 H         1 <0>         0.1467
     33 H9          7.8717   10.1789   -1.5272 H         1 <0>         0.1512
     34 H10         6.0817    2.3582   -0.1303 H         1 <0>         0.3987
     35 H11         6.9354    3.7946   -0.3053 H         1 <0>         0.3991
@<TRIPOS>BOND
     1    1    6 ar
     2    1    2 ar
     3    1   25 1
     4    2    3 ar
     5    2   26 1
     6    3    4 ar
     7    3    8 1
     8    4    5 ar
     9    4    7 1
    10    5    6 ar
    11    6   27 1
    12    8    9 1
    13    8   28 1
    14    9   14 ar
    15    9   10 ar
    16   10   11 ar
    17   10   24 1
    18   11   12 ar
    19   11   15 1
    20   12   13 ar
    21   13   14 ar
    22   13   29 1
    23   15   16 1
    24   15   30 1
    25   16   21 ar
    26   16   17 ar
    27   17   18 ar
    28   17   31 1
    29   18   19 ar
    30   18   32 1
    31   19   20 ar
    32   19   23 1
    33   20   21 ar
    34   20   33 1
    35   21   22 1
    36   24   34 1
    37   24   35 1
@<TRIPOS>MOLECULE
ZINC07985400
   36    38     0     0     0
SMALL
USER_CHARGES
4-amino-3,5,6-trichloro-N-(2-hydroxy-5-methyl-indol-3-ylidene)amino-pyridine-2-carboxamide
@<TRIPOS>ATOM
      1 C1         -7.4020    6.8922    0.0494 C.3       1 <0>        -0.1205
      2 C2         -5.9136    7.1283    0.0513 C.ar      1 <0>        -0.0739
      3 C3         -5.4196    8.4233    0.0582 C.ar      1 <0>        -0.0870
      4 C4         -4.0622    8.6606    0.0686 C.ar      1 <0>        -0.0644
      5 C5         -3.1644    7.5879    0.0585 C.ar      1 <0>         0.0840
      6 C6         -3.6765    6.2747    0.0475 C.ar      1 <0>        -0.1059
      7 C7         -5.0459    6.0533    0.0457 C.ar      1 <0>        -0.0485
      8 C8         -2.4911    5.3871    0.0431 C.2       1 <0>         0.1329
      9 N1         -2.4662    4.0745    0.0359 N.2       1 <0>        -0.1406
     10 N2         -1.3370    3.4509    0.0271 N.am      1 <0>        -0.5122
     11 C9         -1.3115    2.1034    0.0197 C.2       1 <0>         0.5552
     12 O1         -2.3520    1.4760    0.0212 O.2       1 <0>        -0.3867
     13 C10        -0.0168    1.3883    0.0097 C.ar      1 <0>         0.1719
     14 C11         0.0021   -0.0041    0.0020 C.ar      1 <0>        -0.0672
     15 C12         1.2318   -0.6633   -0.0133 C.ar      1 <0>         0.3623
     16 C13         2.3946    0.1052   -0.0203 C.ar      1 <0>        -0.1213
     17 C14         2.2934    1.4876   -0.0119 C.ar      1 <0>         0.2469
     18 Cl1         3.7376    2.4508   -0.0206 Cl        1 <0>         0.0936
     19 Cl2         3.9525   -0.6605   -0.0400 Cl        1 <0>         0.0653
     20 N3          1.2958   -2.0552   -0.0209 N.pl3     1 <0>        -0.7603
     21 Cl3        -1.4813   -0.9058    0.0108 Cl        1 <0>         0.0882
     22 C15        -1.3440    6.3160    0.0422 C.2       1 <0>         0.3115
     23 N4         -1.8063    7.5389    0.0513 N.2       1 <0>        -0.4695
     24 O2         -0.0365    5.9621    0.0336 O.3       1 <0>        -0.4717
     25 H1         -7.7613    6.8296    1.0765 H         1 <0>         0.0796
     26 H2         -7.9001    7.7171   -0.4601 H         1 <0>         0.0757
     27 H3         -7.6212    5.9591   -0.4697 H         1 <0>         0.0728
     28 H4         -6.1069    9.2564    0.0622 H         1 <0>         0.1427
     29 H5         -3.6914    9.6749    0.0722 H         1 <0>         0.1417
     30 H6         -5.4321    5.0447    0.0403 H         1 <0>         0.1372
     31 H7         -0.5064    3.9517    0.0259 H         1 <0>         0.3841
     32 H8          0.4789   -2.5783   -0.0156 H         1 <0>         0.4365
     33 H9          2.1572   -2.5011   -0.0316 H         1 <0>         0.4367
     34 H10         0.5739    6.7120    0.0345 H         1 <0>         0.4309
     35 N5          1.1151    2.1613    0.0031 N.ar      1 <0>        -0.4987
     36 H11         1.0741    3.1872    0.0091 H         1 <0>         0.4787
@<TRIPOS>BOND
     1    1    2 1
     2    1   25 1
     3    1   26 1
     4    1   27 1
     5    2    7 ar
     6    2    3 ar
     7    3    4 ar
     8    3   28 1
     9    4    5 ar
    10    4   29 1
    11    5   23 1
    12    5    6 ar
    13    6    7 ar
    14    6    8 1
    15    7   30 1
    16    8    9 2
    17    8   22 1
    18    9   10 1
    19   10   11 am
    20   10   31 1
    21   11   12 2
    22   11   13 1
    23   13   14 ar
    24   13   35 ar
    25   14   15 ar
    26   14   21 1
    27   15   16 ar
    28   15   20 1
    29   16   17 ar
    30   16   19 1
    31   17   18 1
    32   17   35 ar
    33   20   32 1
    34   20   33 1
    35   22   23 2
    36   22   24 1
    37   24   34 1
    38   35   36 1
@<TRIPOS>MOLECULE
ZINC35288878
   48    51     0     0     0
SMALL
USER_CHARGES

@<TRIPOS>ATOM
      1 C1         -1.2663    1.1824    0.1815 C.3       1 <0>        -0.1181
      2 C2         -0.5850   -0.1583    0.0845 C.ar      1 <0>        -0.1064
      3 C3         -0.5700   -0.8410   -1.1162 C.ar      1 <0>        -0.1021
      4 C4          0.0549   -2.0711   -1.2061 C.ar      1 <0>        -0.1203
      5 C5          0.6667   -2.6222   -0.0948 C.ar      1 <0>        -0.1071
      6 C6          0.6558   -1.9447    1.1084 C.ar      1 <0>        -0.1126
      7 C7          0.0334   -0.7062    1.2007 C.ar      1 <0>         0.1310
      8 N1          0.0246   -0.0154    2.4164 N.am      1 <0>        -0.6613
      9 C8         -0.0569   -0.6952    3.5773 C.2       1 <0>         0.6172
     10 O1         -0.0401   -1.9131    3.5723 O.2       1 <0>        -0.5197
     11 C9         -0.1620    0.0064    4.8028 C.2       1 <0>        -0.3459
     12 C10        -0.2487   -0.5104    6.0746 C.2       1 <0>         0.3190
     13 C11        -0.3492    0.4173    7.1954 C.ar      1 <0>        -0.1705
     14 C12        -0.4463    0.1054    8.5655 C.ar      1 <0>         0.1044
     15 C13        -0.5336    1.1472    9.4901 C.ar      1 <0>        -0.0916
     16 C14        -0.6325    0.9026   10.8740 C.ar      1 <0>        -0.1345
     17 C15        -0.7149    1.9532   11.7370 C.ar      1 <0>         0.1311
     18 C16        -0.7042    3.2792   11.2794 C.ar      1 <0>         0.2403
     19 C17        -0.6103    3.5742    9.9503 C.ar      1 <0>        -0.2462
     20 C18        -0.5220    2.5320    9.0134 C.ar      1 <0>         0.2161
     21 N2         -0.4281    2.7712    7.7036 N.ar      1 <0>        -0.4387
     22 C19        -0.3461    1.7914    6.8364 C.ar      1 <0>         0.1280
     23 S1         -0.2055    1.7678    5.0642 S.3       1 <0>         0.2387
     24 O2         -0.7898    4.2927   12.1798 O.3       1 <0>        -0.2719
     25 C20        -0.7746    5.6242   11.6611 C.3       1 <0>         0.0087
     26 O3         -0.8102    1.7113   13.0716 O.3       1 <0>        -0.2859
     27 C21        -0.8172    0.3432   13.4841 C.3       1 <0>         0.0139
     28 N3         -0.2412   -1.8811    6.2860 N.pl3     1 <0>        -0.8011
     29 H1         -0.5515    1.9710   -0.0537 H         1 <0>         0.0735
     30 H2         -2.0952    1.2207   -0.5253 H         1 <0>         0.0764
     31 H3         -1.6449    1.3252    1.1936 H         1 <0>         0.0596
     32 H4         -1.0472   -0.4135   -1.9857 H         1 <0>         0.1296
     33 H5          0.0649   -2.6029   -2.1460 H         1 <0>         0.1277
     34 H6          1.1533   -3.5835   -0.1682 H         1 <0>         0.1286
     35 H7          1.1337   -2.3756    1.9757 H         1 <0>         0.1394
     36 H8          0.0772    0.9532    2.4243 H         1 <0>         0.4061
     37 H9         -0.4535   -0.9231    8.8951 H         1 <0>         0.1766
     38 H10        -0.6432   -0.1106   11.2478 H         1 <0>         0.1750
     39 H11        -0.6043    4.6027    9.6211 H         1 <0>         0.1750
     40 H12        -0.8489    6.3354   12.4838 H         1 <0>         0.1244
     41 H13         0.1557    5.7922   11.1185 H         1 <0>         0.0725
     42 H14        -1.6190    5.7606   10.9855 H         1 <0>         0.0725
     43 H15         0.1074   -0.1374   13.1646 H         1 <0>         0.0680
     44 H16        -0.8972    0.2914   14.5699 H         1 <0>         0.1198
     45 H17        -1.6673   -0.1681   13.0324 H         1 <0>         0.0680
     46 H18        -0.1739   -2.4878    5.5322 H         1 <0>         0.4363
     47 H19        -0.3033   -2.2331    7.1878 H         1 <0>         0.4072
     48 H20        -0.4203    3.6881    7.3872 H         1 <0>         0.4493
@<TRIPOS>BOND
     1    1    2 1
     2    1   29 1
     3    1   30 1
     4    1   31 1
     5    2    7 ar
     6    2    3 ar
     7    3    4 ar
     8    3   32 1
     9    4    5 ar
    10    4   33 1
    11    5    6 ar
    12    5   34 1
    13    6    7 ar
    14    6   35 1
    15    7    8 1
    16    8    9 am
    17    8   36 1
    18    9   10 2
    19    9   11 1
    20   11   23 1
    21   11   12 2
    22   12   13 1
    23   12   28 1
    24   13   22 ar
    25   13   14 ar
    26   14   15 ar
    27   14   37 1
    28   15   20 ar
    29   15   16 ar
    30   16   17 ar
    31   16   38 1
    32   17   18 ar
    33   17   26 1
    34   18   19 ar
    35   18   24 1
    36   19   20 ar
    37   19   39 1
    38   20   21 ar
    39   21   22 ar
    40   21   48 1
    41   22   23 1
    42   24   25 1
    43   25   40 1
    44   25   41 1
    45   25   42 1
    46   26   27 1
    47   27   43 1
    48   27   44 1
    49   27   45 1
    50   28   46 1
    51   28   47 1
@<TRIPOS>MOLECULE
ZINC39951356
   59    62     0     0     0
SMALL
USER_CHARGES

@<TRIPOS>ATOM
      1 C1          0.1063    1.5284   -2.5848 C.3       1 <0>        -0.1581
      2 C2          0.1181   -0.0015   -2.5739 C.3       1 <0>        -0.1333
      3 C3          0.7182   -0.4975   -1.2568 C.3       1 <0>        -0.1319
      4 C4          0.6316   -2.0240   -1.1997 C.3       1 <0>        -0.0975
      5 C5         -0.8335   -2.3375   -1.2048 C.3       1 <0>        -0.1462
      6 C6         -1.1766   -3.6548   -0.5933 C.3       1 <0>         0.0479
      7 N1         -0.2177   -4.7093   -0.8177 N.3       1 <0>        -0.5164
      8 C7          0.4368   -4.7731   -2.0963 C.3       1 <0>         0.0565
      9 C8          1.7192   -3.9813   -2.2521 C.3       1 <0>        -0.0784
     10 C9          1.3943   -2.5113   -2.4059 C.3       1 <0>         0.1182
     11 H1          0.7909   -2.3676   -3.3023 H         1 <0>         0.0853
     12 O1          2.6170   -1.7817   -2.5264 O.3       1 <0>        -0.5576
     13 C10         2.6026   -4.1299   -1.0086 C.3       1 <0>        -0.0090
     14 N2          1.7793   -3.7867    0.1571 N.4       1 <0>        -0.3985
     15 C11         1.2968   -2.4116    0.1102 C.3       1 <0>         0.0077
     16 C12         0.7208   -4.7770    0.3159 C.3       1 <0>         0.2471
     17 H2          0.1813   -4.5829    1.2429 H         1 <0>         0.1522
     18 C13         1.3308   -6.1537    0.3768 C.ar      1 <0>        -0.0785
     19 C14         2.6065   -6.3221    0.8837 C.ar      1 <0>        -0.1998
     20 C15         3.1701   -7.5833    0.9411 C.ar      1 <0>        -0.0518
     21 C16         2.4601   -8.6798    0.4923 C.ar      1 <0>        -0.1793
     22 C17         1.1785   -8.5143   -0.0169 C.ar      1 <0>         0.2314
     23 C18         0.6132   -7.2462   -0.0683 C.ar      1 <0>        -0.1509
     24 N3          0.4577   -9.6209   -0.4716 N.pl3     1 <0>        -0.8677
     25 C19         2.4788   -4.4760   -3.4846 C.3       1 <0>        -0.1027
     26 C20         2.8133   -5.9594   -3.3162 C.3       1 <0>        -0.1285
     27 C21         3.5728   -6.4541   -4.5488 C.3       1 <0>        -0.1562
     28 H3         -0.4946    1.8931   -1.7517 H         1 <0>         0.0587
     29 H4          1.1262    1.9004   -2.4874 H         1 <0>         0.0581
     30 H5         -0.3212    1.8818   -3.5231 H         1 <0>         0.0629
     31 H6         -0.9018   -0.3734   -2.6713 H         1 <0>         0.0729
     32 H7          0.7190   -0.3661   -3.4070 H         1 <0>         0.0648
     33 H8          1.7622   -0.1903   -1.1947 H         1 <0>         0.0792
     34 H9          0.1635   -0.0706   -0.4212 H         1 <0>         0.0826
     35 H10        -1.3579   -1.5540   -0.6579 H         1 <0>         0.0955
     36 H11        -1.1860   -2.3315   -2.2362 H         1 <0>         0.0856
     37 H12        -1.2860   -3.5148    0.4822 H         1 <0>         0.0816
     38 H13        -2.1389   -3.9767   -0.9914 H         1 <0>         0.1010
     39 H14         0.6600   -5.8189   -2.3076 H         1 <0>         0.1089
     40 H15        -0.2672   -4.4243   -2.8519 H         1 <0>         0.0960
     41 H16         2.4972   -0.8279   -2.6320 H         1 <0>         0.3896
     42 H17         2.9541   -5.1582   -0.9243 H         1 <0>         0.1469
     43 H18         3.4528   -3.4509   -1.0747 H         1 <0>         0.1383
     44 H19         2.1588   -1.7624    0.2641 H         1 <0>         0.1286
     45 H20         0.5895   -2.2361    0.9208 H         1 <0>         0.1299
     46 H21         3.1639   -5.4664    1.2353 H         1 <0>         0.1109
     47 H22         4.1668   -7.7113    1.3368 H         1 <0>         0.1328
     48 H23         2.9010   -9.6647    0.5370 H         1 <0>         0.1301
     49 H24        -0.3846   -7.1146   -0.4599 H         1 <0>         0.1406
     50 H25         0.8520  -10.5063   -0.4319 H         1 <0>         0.4060
     51 H26        -0.4372   -9.5041   -0.8270 H         1 <0>         0.4041
     52 H27         1.8593   -4.3416   -4.3713 H         1 <0>         0.0799
     53 H28         3.4012   -3.9059   -3.5960 H         1 <0>         0.0878
     54 H29         3.4328   -6.0938   -2.4295 H         1 <0>         0.0615
     55 H30         1.8909   -6.5295   -3.2048 H         1 <0>         0.0675
     56 H31         2.9533   -6.3197   -5.4355 H         1 <0>         0.0580
     57 H32         4.4952   -5.8841   -4.6602 H         1 <0>         0.0580
     58 H33         3.8111   -7.5110   -4.4288 H         1 <0>         0.0593
     59 H34         2.3721   -3.8663    0.9697 H         1 <0>         0.4184
@<TRIPOS>BOND
     1    1    2 1
     2    1   28 1
     3    1   29 1
     4    1   30 1
     5    2    3 1
     6    2   31 1
     7    2   32 1
     8    3    4 1
     9    3   33 1
    10    3   34 1
    11    4   10 1
    12    4   15 1
    13    4    5 1
    14    5    6 1
    15    5   35 1
    16    5   36 1
    17    6    7 1
    18    6   37 1
    19    6   38 1
    20    7   16 1
    21    7    8 1
    22    8    9 1
    23    8   39 1
    24    8   40 1
    25    9   10 1
    26    9   13 1
    27    9   25 1
    28   10   11 1
    29   10   12 1
    30   12   41 1
    31   13   14 1
    32   13   42 1
    33   13   43 1
    34   14   15 1
    35   14   16 1
    36   14   59 1
    37   15   44 1
    38   15   45 1
    39   16   17 1
    40   16   18 1
    41   18   23 ar
    42   18   19 ar
    43   19   20 ar
    44   19   46 1
    45   20   21 ar
    46   20   47 1
    47   21   22 ar
    48   21   48 1
    49   22   23 ar
    50   22   24 1
    51   23   49 1
    52   24   50 1
    53   24   51 1
    54   25   26 1
    55   25   52 1
    56   25   53 1
    57   26   27 1
    58   26   54 1
    59   26   55 1
    60   27   56 1
    61   27   57 1
    62   27   58 1
@<TRIPOS>MOLECULE
ZINC45896312
   48    51     0     0     0
SMALL
USER_CHARGES

@<TRIPOS>ATOM
      1 C1          3.1635    1.8446   -2.6546 C.3       1 <0>        -0.1529
      2 C2          3.2211    0.3408   -2.3784 C.3       1 <0>        -0.1434
      3 C3          1.8060   -0.2396   -2.4188 C.3       1 <0>         0.0536
      4 N1          1.8611   -1.6795   -2.1543 N.pl3     1 <0>        -0.5787
      5 C4          0.8891   -2.4631   -2.5720 C.2       1 <0>         0.4085
      6 C5          0.9963   -3.9374   -2.4864 C.ar      1 <0>        -0.1755
      7 C6          2.1289   -4.5512   -1.9602 C.ar      1 <0>        -0.0462
      8 C7          2.1902   -5.9275   -1.8973 C.ar      1 <0>        -0.1110
      9 C8          1.1306   -6.6950   -2.3555 C.ar      1 <0>        -0.0263
     10 C9          0.0036   -6.0965   -2.8791 C.ar      1 <0>        -0.1131
     11 C10        -0.0763   -4.7117   -2.9497 C.ar      1 <0>         0.1662
     12 O1         -1.1715   -4.1068   -3.4582 O.3       1 <0>        -0.2309
     13 C11        -1.2846   -2.7718   -3.5429 C.2       1 <0>         0.4490
     14 O2         -2.4173   -2.2480   -4.0657 O.3       1 <0>        -0.3832
     15 C12        -0.3126   -1.9277   -3.1201 C.2       1 <0>        -0.0565
     16 N2         -0.4862   -0.5327   -3.2264 N.am      1 <0>        -0.6740
     17 C13        -0.7059    0.2053   -2.1202 C.2       1 <0>         0.7050
     18 O3         -0.8276   -0.3398   -1.0398 O.2       1 <0>        -0.5511
     19 N3         -0.7907    1.5473   -2.2112 N.am      1 <0>        -0.6704
     20 C14        -0.9243    2.3212   -1.0507 C.ar      1 <0>         0.1536
     21 C15        -0.3114    3.5644   -0.9710 C.ar      1 <0>        -0.1258
     22 C16        -0.4419    4.3286    0.1729 C.ar      1 <0>        -0.0804
     23 C17        -1.1847    3.8569    1.2430 C.ar      1 <0>         0.0307
     24 C18        -1.8011    2.6103    1.1658 C.ar      1 <0>         0.0538
     25 C19        -1.6741    1.8475    0.0169 C.ar      1 <0>        -0.1010
     26 O4         -2.4644    2.3782    2.3362 O.3       1 <0>        -0.3046
     27 C20        -1.9117    3.3112    3.2833 C.3       1 <0>         0.2128
     28 O5         -1.4624    4.4058    2.4628 O.3       1 <0>        -0.3039
     29 H1          2.7281    2.0168   -3.6389 H         1 <0>         0.0627
     30 H2          2.5499    2.3301   -1.8958 H         1 <0>         0.0652
     31 H3          4.1716    2.2581   -2.6258 H         1 <0>         0.0751
     32 H4          3.8347   -0.1447   -3.1371 H         1 <0>         0.0804
     33 H5          3.6564    0.1686   -1.3940 H         1 <0>         0.0793
     34 H6          1.1923    0.2459   -1.6600 H         1 <0>         0.1107
     35 H7          1.3706   -0.0674   -3.4031 H         1 <0>         0.1158
     36 H8          2.6137   -2.0555   -1.6714 H         1 <0>         0.4300
     37 H9          2.9549   -3.9536   -1.6038 H         1 <0>         0.1462
     38 H10         3.0668   -6.4090   -1.4899 H         1 <0>         0.1580
     39 H11         1.1883   -7.7722   -2.3022 H         1 <0>         0.1636
     40 H12        -0.8158   -6.7041   -3.2339 H         1 <0>         0.1652
     41 H13        -0.4476   -0.1039   -4.0956 H         1 <0>         0.4186
     42 H14        -0.7592    1.9774   -3.0801 H         1 <0>         0.4170
     43 H15         0.2683    3.9345   -1.8037 H         1 <0>         0.1444
     44 H16         0.0363    5.2950    0.2329 H         1 <0>         0.1462
     45 H17        -2.1546    0.8823   -0.0466 H         1 <0>         0.1506
     46 H18        -2.6777    3.6461    3.9827 H         1 <0>         0.1380
     47 H19        -1.0734    2.8636    3.8172 H         1 <0>         0.0888
     48 H20        -3.0663   -2.9100   -4.3408 H         1 <0>         0.4401
@<TRIPOS>BOND
     1    1    2 1
     2    1   29 1
     3    1   30 1
     4    1   31 1
     5    2    3 1
     6    2   32 1
     7    2   33 1
     8    3    4 1
     9    3   34 1
    10    3   35 1
    11    4    5 2
    12    4   36 1
    13    5   15 1
    14    5    6 1
    15    6   11 ar
    16    6    7 ar
    17    7    8 ar
    18    7   37 1
    19    8    9 ar
    20    8   38 1
    21    9   10 ar
    22    9   39 1
    23   10   11 ar
    24   10   40 1
    25   11   12 1
    26   12   13 1
    27   13   14 1
    28   13   15 2
    29   14   48 1
    30   15   16 1
    31   16   17 am
    32   16   41 1
    33   17   18 2
    34   17   19 am
    35   19   20 1
    36   19   42 1
    37   20   25 ar
    38   20   21 ar
    39   21   22 ar
    40   21   43 1
    41   22   23 ar
    42   22   44 1
    43   23   28 1
    44   23   24 ar
    45   24   25 ar
    46   24   26 1
    47   25   45 1
    48   26   27 1
    49   27   28 1
    50   27   46 1
    51   27   47 1
@<TRIPOS>MOLECULE
ZINC59170367
   41    43     0     0     0
SMALL
USER_CHARGES

@<TRIPOS>ATOM
      1 C1         -0.0303    1.5028    0.0771 C.3       1 <0>        -0.1339
      2 C2         -0.0083   -0.0039    0.0554 C.ar      1 <0>        -0.0055
      3 C3         -0.0047   -0.6778   -1.1516 C.ar      1 <0>        -0.1368
      4 C4          0.0155   -2.0598   -1.1715 C.ar      1 <0>        -0.0071
      5 C5          0.0324   -2.7680    0.0155 C.ar      1 <0>        -0.7006
      6 C6          0.0297   -2.0942    1.2225 C.ar      1 <0>        -0.0177
      7 C7          0.0139   -0.7120    1.2424 C.ar      1 <0>        -0.1300
      8 S1          0.0569   -4.5297   -0.0099 S.o2      1 <0>         2.6633
      9 O1         -0.4806   -4.9613    1.2327 O.2       1 <0>        -0.9115
     10 O2         -0.4958   -4.9256   -1.2577 O.2       1 <0>        -0.8895
     11 N1          1.6455   -4.9971   -0.0263 N.pl3     1 <0>        -0.9152
     12 N2          2.4952   -4.6279    1.0247 N.pl3     1 <0>        -0.2929
     13 C8          3.7452   -4.9957    1.0117 C.2       1 <0>         0.5180
     14 C9          4.6919   -4.5212    2.0474 C.2       1 <0>        -0.2529
     15 C10         5.7733   -5.3224    2.3250 C.2       1 <0>         0.1319
     16 C11         5.8999   -6.5781    1.5752 C.ar      1 <0>        -0.1579
     17 C12         6.8070   -7.5622    1.9797 C.ar      1 <0>        -0.0219
     18 C13         6.9063   -8.7352    1.2607 C.ar      1 <0>        -0.0441
     19 C14         6.1115   -8.9410    0.1428 C.ar      1 <0>        -0.0248
     20 C15         5.2118   -7.9754   -0.2675 C.ar      1 <0>        -0.0964
     21 C16         5.0987   -6.7899    0.4395 C.ar      1 <0>         0.1248
     22 O3          4.2222   -5.8348    0.0467 O.3       1 <0>        -0.2120
     23 Cl1         8.0313   -9.9603    1.7579 Cl        1 <0>        -0.0136
     24 C17         4.4832   -3.2438    2.7500 C.2       1 <0>         0.5837
     25 O4          3.4742   -2.5956    2.5467 O.2       1 <0>        -0.5347
     26 N3          5.4103   -2.7929    3.6182 N.am      1 <0>        -0.8222
     27 H1          0.9919    1.8811    0.0722 H         1 <0>         0.0863
     28 H2         -0.5583    1.8712   -0.8024 H         1 <0>         0.0800
     29 H3         -0.5403    1.8458    0.9773 H         1 <0>         0.0798
     30 H4         -0.0179   -0.1245   -2.0790 H         1 <0>         0.1423
     31 H5          0.0176   -2.5863   -2.1145 H         1 <0>         0.1464
     32 H6          0.0426   -2.6475    2.1499 H         1 <0>         0.1409
     33 H7          0.0155   -0.1855    2.1854 H         1 <0>         0.1418
     34 H8          1.9877   -5.5264   -0.7636 H         1 <0>         0.4562
     35 H9          6.5039   -5.0383    3.0679 H         1 <0>         0.1929
     36 H10         7.4268   -7.4047    2.8500 H         1 <0>         0.1703
     37 H11         6.1966   -9.8636   -0.4121 H         1 <0>         0.1716
     38 H12         4.5974   -8.1451   -1.1394 H         1 <0>         0.1711
     39 H13         6.2476   -3.2707    3.7251 H         1 <0>         0.4087
     40 H14         5.2401   -1.9906    4.1361 H         1 <0>         0.4283
     41 H15         2.1530   -4.0986    1.7619 H         1 <0>         0.4829
@<TRIPOS>BOND
     1    1    2 1
     2    1   27 1
     3    1   28 1
     4    1   29 1
     5    2    7 ar
     6    2    3 ar
     7    3    4 ar
     8    3   30 1
     9    4    5 ar
    10    4   31 1
    11    5    6 ar
    12    5    8 1
    13    6    7 ar
    14    6   32 1
    15    7   33 1
    16    8    9 2
    17    8   10 2
    18    8   11 1
    19   11   12 1
    20   11   34 1
    21   12   13 2
    22   12   41 1
    23   13   22 1
    24   13   14 1
    25   14   15 2
    26   14   24 1
    27   15   16 1
    28   15   35 1
    29   16   21 ar
    30   16   17 ar
    31   17   18 ar
    32   17   36 1
    33   18   19 ar
    34   18   23 1
    35   19   20 ar
    36   19   37 1
    37   20   21 ar
    38   20   38 1
    39   21   22 1
    40   24   25 2
    41   24   26 am
    42   26   39 1
    43   26   40 1
@<TRIPOS>MOLECULE
ZINC13126070
   24    25     0     0     0
SMALL
USER_CHARGES

@<TRIPOS>ATOM
      1 C1         -0.0168    1.3875    0.0097 C.ar      1 <0>        -0.0150
      2 C2          1.1726    2.0875    0.0021 C.ar      1 <0>        -0.0619
      3 C3          2.3816    1.4089   -0.0136 C.ar      1 <0>        -0.0220
      4 C4          2.4125    0.0290   -0.0213 C.ar      1 <0>        -0.0566
      5 C5          1.2241   -0.6929   -0.0134 C.ar      1 <0>         0.1050
      6 C6          0.0021   -0.0041    0.0020 C.ar      1 <0>        -0.0260
      7 C7         -1.0519   -1.0387    0.0061 C.2       1 <0>        -0.0116
      8 C8         -0.3887   -2.2674   -0.0071 C.2       1 <0>         0.4753
      9 N1          0.9495   -2.0510   -0.0179 N.pl3     1 <0>        -0.4872
     10 H1          1.6218   -2.7502   -0.0288 H         1 <0>         0.4551
     11 O1         -0.9853   -3.4784   -0.0083 O.3       1 <0>        -0.4412
     12 N2         -2.3753   -0.8390    0.0196 N.2       1 <0>        -0.0227
     13 N3         -3.1798   -1.8474    0.0214 N.pl3     1 <0>        -0.3979
     14 C9         -4.5124   -1.6462    0.0351 C.2       1 <0>         0.5023
     15 S1         -5.5801   -2.9845    0.0375 S.2       1 <0>        -0.3915
     16 N4         -5.0045   -0.3916    0.0468 N.pl3     1 <0>        -0.7476
     17 Br1         4.0708   -0.8797   -0.0433 Br        1 <0>         0.0186
     18 Br2         1.1533    3.9784    0.0124 Br        1 <0>         0.0238
     19 H2         -0.9579    1.9171    0.0260 H         1 <0>         0.1695
     20 H3          3.3074    1.9650   -0.0201 H         1 <0>         0.1755
     21 H4         -1.1674   -3.8262   -0.8920 H         1 <0>         0.4544
     22 H5         -4.3995    0.3667    0.0454 H         1 <0>         0.4161
     23 H6         -5.9635   -0.2468    0.0566 H         1 <0>         0.4515
     24 H7         -2.8257   -2.7504    0.0130 H         1 <0>         0.4343
@<TRIPOS>BOND
     1    1    6 ar
     2    1    2 ar
     3    1   19 1
     4    2    3 ar
     5    2   18 1
     6    3    4 ar
     7    3   20 1
     8    4    5 ar
     9    4   17 1
    10    5    9 1
    11    5    6 ar
    12    6    7 1
    13    7    8 2
    14    7   12 1
    15    8    9 1
    16    8   11 1
    17    9   10 1
    18   11   21 1
    19   12   13 2
    20   13   14 1
    21   13   24 1
    22   14   15 2
    23   14   16 1
    24   16   22 1
    25   16   23 1
@<TRIPOS>MOLECULE
ZINC09419159
   34    36     0     0     0
SMALL
USER_CHARGES
(4-chlorophenyl) 4,9-diamino-2-methylsulfanyl-7-thia-3,5-diazabicyclo[4.3.0]nona-2,4,8,10-tetraene-8-carboxylate
@<TRIPOS>ATOM
      1 C1          1.8252   -4.7309    0.0325 C.3       1 <0>        -0.1375
      2 S1          0.7002   -3.3139   -0.0192 S.3       1 <0>        -0.0381
      3 C2          1.8670   -1.9947    0.0355 C.ar      1 <0>         0.2798
      4 C3          1.4239   -0.6392    0.0154 C.ar      1 <0>        -0.2963
      5 C4          0.0738   -0.1154   -0.0477 C.2       1 <0>         0.3534
      6 C5         -0.0968    1.2566   -0.0555 C.2       1 <0>        -0.3654
      7 S2          1.5721    1.8784    0.0227 S.3       1 <0>         0.1913
      8 C6          2.4465    0.3362    0.0634 C.ar      1 <0>         0.2189
      9 N1          3.7192   -0.0052    0.1229 N.ar      1 <0>        -0.5443
     10 C7          4.0718   -1.2840    0.1392 C.ar      1 <0>         0.6241
     11 N2          3.1636   -2.2509    0.0970 N.ar      1 <0>        -0.5841
     12 N3          5.4121   -1.6161    0.2019 N.pl3     1 <0>        -0.7993
     13 C8         -1.3015    1.9884   -0.1168 C.2       1 <0>         0.5721
     14 O1         -2.3676    1.4026   -0.1719 O.2       1 <0>        -0.5130
     15 O2         -1.2722    3.3385   -0.1143 O.3       1 <0>        -0.2917
     16 C9         -2.4570    4.0023   -0.0576 C.ar      1 <0>         0.0983
     17 C10        -2.9728    4.6013   -1.1976 C.ar      1 <0>        -0.1039
     18 C11        -4.1798    5.2706   -1.1392 C.ar      1 <0>        -0.0952
     19 C12        -4.8684    5.3540    0.0581 C.ar      1 <0>        -0.0340
     20 C13        -4.3528    4.7621    1.1976 C.ar      1 <0>        -0.0944
     21 C14        -3.1491    4.0866    1.1418 C.ar      1 <0>        -0.1096
     22 Cl1        -6.3816    6.2019    0.1306 Cl        1 <0>        -0.0617
     23 N4         -1.0183   -0.9683   -0.0985 N.pl3     1 <0>        -0.8074
     24 H1          1.2474   -5.6547    0.0053 H         1 <0>         0.1108
     25 H2          2.4941   -4.6953   -0.8273 H         1 <0>         0.0967
     26 H3          2.4115   -4.6959    0.9507 H         1 <0>         0.0969
     27 H4          6.0840   -0.9172    0.2335 H         1 <0>         0.4231
     28 H5          5.6808   -2.5481    0.2143 H         1 <0>         0.4210
     29 H6         -2.4335    4.5403   -2.1313 H         1 <0>         0.1425
     30 H7         -4.5841    5.7330   -2.0276 H         1 <0>         0.1434
     31 H8         -4.8919    4.8280    2.1311 H         1 <0>         0.1422
     32 H9         -2.7473    3.6242    2.0313 H         1 <0>         0.1387
     33 H10        -1.9172   -0.6097   -0.0326 H         1 <0>         0.4242
     34 H11        -0.8834   -1.9235   -0.1999 H         1 <0>         0.3986
@<TRIPOS>BOND
     1    1    2 1
     2    1   24 1
     3    1   25 1
     4    1   26 1
     5    2    3 1
     6    3   11 ar
     7    3    4 ar
     8    4    8 ar
     9    4    5 1
    10    5    6 2
    11    5   23 1
    12    6    7 1
    13    6   13 1
    14    7    8 1
    15    8    9 ar
    16    9   10 ar
    17   10   11 ar
    18   10   12 1
    19   12   27 1
    20   12   28 1
    21   13   14 2
    22   13   15 1
    23   15   16 1
    24   16   21 ar
    25   16   17 ar
    26   17   18 ar
    27   17   29 1
    28   18   19 ar
    29   18   30 1
    30   19   20 ar
    31   19   22 1
    32   20   21 ar
    33   20   31 1
    34   21   32 1
    35   23   33 1
    36   23   34 1
@<TRIPOS>MOLECULE
ZINC00138042
   49    51     0     0     0
SMALL
USER_CHARGES

@<TRIPOS>ATOM
      1 C1         -0.0270    1.2785   -0.3381 C.3       1 <0>        -0.1772
      2 C2          0.1677   -0.2306   -0.1785 C.3       1 <0>         0.1820
      3 C3          1.1549   -0.7686   -1.2590 C.3       1 <0>        -0.0966
      4 H1          1.0340   -0.3581   -2.2615 H         1 <0>         0.1345
      5 C4          1.0550   -2.3202   -1.1412 C.3       1 <0>        -0.1207
      6 C5          1.7322   -2.6540    0.2077 C.3       1 <0>        -0.1298
      7 C6          2.1775   -1.2727    0.7778 C.3       1 <0>        -0.0914
      8 H2          2.9568   -1.3004    1.5394 H         1 <0>         0.1005
      9 C7          2.5315   -0.4919   -0.5577 C.3       1 <0>        -0.1275
     10 C8          0.8547   -0.5458    1.1699 C.3       1 <0>        -0.0637
     11 C9          1.1340    0.7459    1.9410 C.3       1 <0>        -0.1396
     12 C10        -0.0149   -1.4888    2.0039 C.3       1 <0>        -0.1578
     13 N1         -1.1200   -0.9232   -0.2699 N.pl3     1 <0>        -0.6487
     14 C11        -1.8046   -0.9227   -1.4308 C.2       1 <0>         0.5901
     15 S1         -1.2313   -0.0118   -2.7622 S.2       1 <0>        -0.6136
     16 N2         -2.9405   -1.6393   -1.5437 N.pl3     1 <0>        -0.5445
     17 N3         -3.4096   -2.3847   -0.4541 N.2       1 <0>        -0.2619
     18 C12        -4.5037   -3.0750   -0.5628 C.2       1 <0>         0.1418
     19 C13        -4.9970   -3.8589    0.5829 C.ar      1 <0>        -0.1020
     20 C14        -6.1712   -4.6073    0.4672 C.ar      1 <0>        -0.0511
     21 C15        -6.6292   -5.3390    1.5410 C.ar      1 <0>        -0.1572
     22 C16        -5.9272   -5.3351    2.7406 C.ar      1 <0>         0.1478
     23 C17        -4.7604   -4.5953    2.8655 C.ar      1 <0>        -0.1804
     24 C18        -4.2870   -3.8613    1.7920 C.ar      1 <0>         0.1674
     25 O1         -3.1416   -3.1414    1.9110 O.3       1 <0>        -0.4773
     26 O2         -6.3858   -6.0585    3.7951 O.3       1 <0>        -0.4964
     27 H3          0.9316    1.7833   -0.2180 H         1 <0>         0.0720
     28 H4         -0.4275    1.4904   -1.3294 H         1 <0>         0.1059
     29 H5         -0.7238    1.6371    0.4195 H         1 <0>         0.0499
     30 H6          0.0112   -2.6340   -1.1303 H         1 <0>         0.0560
     31 H7          1.5880   -2.7987   -1.9627 H         1 <0>         0.0634
     32 H8          1.0213   -3.1320    0.8818 H         1 <0>         0.0706
     33 H9          2.5981   -3.2968    0.0494 H         1 <0>         0.0632
     34 H10         3.3618   -0.9567   -1.0893 H         1 <0>         0.0732
     35 H11         2.7009    0.5725   -0.3952 H         1 <0>         0.0754
     36 H12         0.1947    1.2643    2.1337 H         1 <0>         0.0589
     37 H13         1.6177    0.5064    2.8879 H         1 <0>         0.0578
     38 H14         1.7884    1.3872    1.3506 H         1 <0>         0.0657
     39 H15        -0.2996   -2.3502    1.3996 H         1 <0>         0.0716
     40 H16         0.5469   -1.8259    2.8751 H         1 <0>         0.0681
     41 H17        -0.9114   -0.9623    2.3311 H         1 <0>         0.0528
     42 H18        -1.4800   -1.3820    0.5052 H         1 <0>         0.4126
     43 H19        -3.4331   -1.6389   -2.3792 H         1 <0>         0.4145
     44 H20        -5.0522   -3.0746   -1.4931 H         1 <0>         0.1297
     45 H21        -6.7195   -4.6120   -0.4632 H         1 <0>         0.1413
     46 H22        -7.5369   -5.9171    1.4505 H         1 <0>         0.1401
     47 H23        -4.2186   -4.5956    3.7998 H         1 <0>         0.1411
     48 H24        -3.2769   -2.2355    2.2211 H         1 <0>         0.3904
     49 H25        -6.0482   -6.9640    3.8274 H         1 <0>         0.3991
@<TRIPOS>BOND
     1    1    2 1
     2    1   27 1
     3    1   28 1
     4    1   29 1
     5    2   10 1
     6    2    3 1
     7    2   13 1
     8    3    4 1
     9    3    9 1
    10    3    5 1
    11    5    6 1
    12    5   30 1
    13    5   31 1
    14    6    7 1
    15    6   32 1
    16    6   33 1
    17    7    8 1
    18    7    9 1
    19    7   10 1
    20    9   34 1
    21    9   35 1
    22   10   11 1
    23   10   12 1
    24   11   36 1
    25   11   37 1
    26   11   38 1
    27   12   39 1
    28   12   40 1
    29   12   41 1
    30   13   14 1
    31   13   42 1
    32   14   15 2
    33   14   16 1
    34   16   17 1
    35   16   43 1
    36   17   18 2
    37   18   19 1
    38   18   44 1
    39   19   24 ar
    40   19   20 ar
    41   20   21 ar
    42   20   45 1
    43   21   22 ar
    44   21   46 1
    45   22   23 ar
    46   22   26 1
    47   23   24 ar
    48   23   47 1
    49   24   25 1
    50   25   48 1
    51   26   49 1
@<TRIPOS>MOLECULE
ZINC40709288
   39    41     0     0     0
SMALL
USER_CHARGES

@<TRIPOS>ATOM
      1 C1          1.0232    2.9476    0.1448 C.ar      1 <0>        -0.1108
      2 C2          2.3061    3.4480    0.2656 C.ar      1 <0>        -0.1222
      3 C3          3.3888    2.5891    0.2336 C.ar      1 <0>        -0.1000
      4 C4          3.1885    1.2299    0.0812 C.ar      1 <0>        -0.1135
      5 C5          1.9055    0.7294   -0.0386 C.ar      1 <0>        -0.1000
      6 C6          0.8229    1.5884   -0.0080 C.ar      1 <0>        -0.1222
      7 C7          4.3689    0.2936    0.0453 C.3       1 <0>         0.1783
      8 N1          4.6796   -0.1529    1.4056 N.pl3     1 <0>        -0.7120
      9 C8          5.7365   -1.0280    1.6252 C.ar      1 <0>         0.4094
     10 C9          6.0385   -1.4651    2.9166 C.ar      1 <0>         0.0088
     11 C10         7.1101   -2.3442    3.0811 C.ar      1 <0>         0.3836
     12 N2          7.7984   -2.7295    2.0087 N.ar      1 <0>        -0.5600
     13 C11         7.4802   -2.2932    0.8071 C.ar      1 <0>         0.3232
     14 N3          6.4731   -1.4668    0.6076 N.ar      1 <0>        -0.5653
     15 N4          7.4537   -2.8097    4.3454 N.pl3     1 <0>        -0.6498
     16 C12         8.6096   -3.5772    4.5174 C.ar      1 <0>         0.1843
     17 C13         9.6526   -3.4790    3.6054 C.ar      1 <0>        -0.1215
     18 C14        10.7932   -4.2382    3.7784 C.ar      1 <0>        -0.0901
     19 C15        10.8981   -5.0962    4.8580 C.ar      1 <0>        -0.1366
     20 C16         9.8622   -5.1971    5.7684 C.ar      1 <0>        -0.0865
     21 C17         8.7201   -4.4361    5.6047 C.ar      1 <0>        -0.0836
     22 Cl1         7.4227   -4.5578    6.7517 Cl        1 <0>        -0.0739
     23 N5          5.2850   -1.0319    4.0195 N.pl3     1 <0>        -0.8754
     24 H1          0.1771    3.6182    0.1744 H         1 <0>         0.1239
     25 H2          2.4626    4.5099    0.3846 H         1 <0>         0.1246
     26 H3          4.3912    2.9801    0.3272 H         1 <0>         0.1238
     27 H4          1.7491   -0.3325   -0.1580 H         1 <0>         0.1237
     28 H5         -0.1794    1.1975   -0.1020 H         1 <0>         0.1245
     29 H6          4.1288   -0.5701   -0.5747 H         1 <0>         0.0753
     30 H7          5.2316    0.8125   -0.3727 H         1 <0>         0.0755
     31 H8          4.1475    0.1623    2.1529 H         1 <0>         0.4045
     32 H9          8.0599   -2.6262   -0.0411 H         1 <0>         0.1982
     33 H10         6.8915   -2.6020    5.1081 H         1 <0>         0.4144
     34 H11         9.5715   -2.8099    2.7616 H         1 <0>         0.1611
     35 H12        11.6044   -4.1620    3.0694 H         1 <0>         0.1309
     36 H13        11.7911   -5.6890    4.9902 H         1 <0>         0.1305
     37 H14         9.9474   -5.8681    6.6103 H         1 <0>         0.1341
     38 H15         4.5432   -0.4205    3.8900 H         1 <0>         0.3965
     39 H16         5.5065   -1.3439    4.9108 H         1 <0>         0.3946
@<TRIPOS>BOND
     1    1    6 ar
     2    1    2 ar
     3    1   24 1
     4    2    3 ar
     5    2   25 1
     6    3    4 ar
     7    3   26 1
     8    4    5 ar
     9    4    7 1
    10    5    6 ar
    11    5   27 1
    12    6   28 1
    13    7    8 1
    14    7   29 1
    15    7   30 1
    16    8    9 1
    17    8   31 1
    18    9   14 ar
    19    9   10 ar
    20   10   11 ar
    21   10   23 1
    22   11   12 ar
    23   11   15 1
    24   12   13 ar
    25   13   14 ar
    26   13   32 1
    27   15   16 1
    28   15   33 1
    29   16   21 ar
    30   16   17 ar
    31   17   18 ar
    32   17   34 1
    33   18   19 ar
    34   18   35 1
    35   19   20 ar
    36   19   36 1
    37   20   21 ar
    38   20   37 1
    39   21   22 1
    40   23   38 1
    41   23   39 1
@<TRIPOS>MOLECULE
ZINC42620584
   36    37     0     0     0
SMALL
USER_CHARGES

@<TRIPOS>ATOM
      1 C1          0.4032    1.1695   -0.4946 C.ar      1 <0>        -0.0811
      2 C2          1.6076    1.8249   -0.3240 C.ar      1 <0>        -0.1339
      3 C3          2.5836    1.2833    0.5033 C.ar      1 <0>         0.1614
      4 C4          2.3476    0.0827    1.1585 C.ar      1 <0>        -0.1452
      5 C5          1.1373   -0.5725    0.9849 C.ar      1 <0>         0.1802
      6 C6          0.1654   -0.0256    0.1562 C.ar      1 <0>        -0.1589
      7 N1          0.8957   -1.7834    1.6435 N.am      1 <0>        -0.6846
      8 C7          1.4221   -2.0033    2.8645 C.2       1 <0>         0.7044
      9 O1          2.0255   -1.1153    3.4353 O.2       1 <0>        -0.5741
     10 N2          1.2798   -3.2074    3.4529 N.am      1 <0>        -0.8609
     11 N3          3.8023    1.9466    0.6751 N.am      1 <0>        -0.6662
     12 C8          3.8375    3.2935    0.7089 C.2       1 <0>         0.5492
     13 O2          2.8227    3.9341    0.5061 O.2       1 <0>        -0.5202
     14 C9          5.0960    3.9857    0.9895 C.2       1 <0>        -0.2037
     15 C10         5.1313    5.3336    1.0233 C.2       1 <0>        -0.0140
     16 C11         6.3967    6.0296    1.3054 C.ar      1 <0>        -0.0593
     17 C12         7.5661    5.2966    1.5334 C.ar      1 <0>        -0.0858
     18 C13         8.7481    5.9546    1.7971 C.ar      1 <0>        -0.0985
     19 C14         8.7804    7.3391    1.8370 C.ar      1 <0>        -0.0226
     20 C15         7.6257    8.0726    1.6121 C.ar      1 <0>        -0.0334
     21 C16         6.4368    7.4270    1.3412 C.ar      1 <0>        -0.0742
     22 Cl1         7.6772    9.8070    1.6649 Cl        1 <0>        -0.0401
     23 Cl2        10.2737    8.1592    2.1705 Cl        1 <0>        -0.0410
     24 H1         -0.3556    1.5948   -1.1347 H         1 <0>         0.1318
     25 H2          1.7907    2.7588   -0.8345 H         1 <0>         0.1398
     26 H3          3.1047   -0.3407    1.8019 H         1 <0>         0.1397
     27 H4         -0.7771   -0.5351    0.0210 H         1 <0>         0.1271
     28 H5          0.3492   -2.4646    1.2211 H         1 <0>         0.4092
     29 H6          0.7984   -3.9158    2.9976 H         1 <0>         0.3996
     30 H7          1.6587   -3.3656    4.3318 H         1 <0>         0.4197
     31 H8          4.6225    1.4374    0.7701 H         1 <0>         0.4127
     32 H9          5.9965    3.4173    1.1695 H         1 <0>         0.1352
     33 H10         4.2308    5.9020    0.8433 H         1 <0>         0.1442
     34 H11         7.5428    4.2173    1.5031 H         1 <0>         0.1447
     35 H12         9.6514    5.3895    1.9736 H         1 <0>         0.1483
     36 H13         5.5386    7.9992    1.1618 H         1 <0>         0.1502
@<TRIPOS>BOND
     1    1    6 ar
     2    1    2 ar
     3    1   24 1
     4    2    3 ar
     5    2   25 1
     6    3    4 ar
     7    3   11 1
     8    4    5 ar
     9    4   26 1
    10    5    6 ar
    11    5    7 1
    12    6   27 1
    13    7    8 am
    14    7   28 1
    15    8    9 2
    16    8   10 am
    17   10   29 1
    18   10   30 1
    19   11   12 am
    20   11   31 1
    21   12   13 2
    22   12   14 1
    23   14   15 2
    24   14   32 1
    25   15   16 1
    26   15   33 1
    27   16   21 ar
    28   16   17 ar
    29   17   18 ar
    30   17   34 1
    31   18   19 ar
    32   18   35 1
    33   19   20 ar
    34   19   23 1
    35   20   21 ar
    36   20   22 1
    37   21   36 1
@<TRIPOS>MOLECULE
ZINC63269882
   49    50     0     0     0
SMALL
USER_CHARGES

@<TRIPOS>ATOM
      1 C1          2.4020    1.4723    3.2123 C.3       1 <0>        -0.1171
      2 C2          2.3998   -0.0344    3.1816 C.ar      1 <0>        -0.0429
      3 C3          3.5399   -0.7341    3.5329 C.ar      1 <0>        -0.1709
      4 C4          3.5421   -2.1165    3.5066 C.ar      1 <0>        -0.0770
      5 C5          2.4048   -2.8035    3.1292 C.ar      1 <0>        -0.1914
      6 C6          1.2580   -2.1039    2.7758 C.ar      1 <0>         0.2400
      7 C7          1.2577   -0.7148    2.8084 C.ar      1 <0>        -0.1497
      8 C8          0.0140    0.0483    2.4318 C.3       1 <0>        -0.1062
      9 N1          0.1059   -2.7956    2.3931 N.pl3     1 <0>        -0.6922
     10 C9          0.1315   -4.1802    2.2822 C.ar      1 <0>         0.2158
     11 C10         0.2079   -4.7795    1.0307 C.ar      1 <0>        -0.1275
     12 C11         0.2332   -6.1546    0.9233 C.ar      1 <0>        -0.0776
     13 C12         0.1834   -6.9484    2.0585 C.ar      1 <0>        -0.1238
     14 C13         0.1080   -6.3726    3.3078 C.ar      1 <0>        -0.0817
     15 C14         0.0864   -4.9812    3.4339 C.ar      1 <0>        -0.1410
     16 C15         0.0114   -4.3584    4.7682 C.2       1 <0>         0.5603
     17 O1         -0.1265   -3.1545    4.8703 O.2       1 <0>        -0.5010
     18 N2          0.0957   -5.1233    5.8746 N.am      1 <0>        -0.5301
     19 N3          0.0245   -4.5315    7.1425 N.am      1 <0>        -0.5285
     20 C16         0.1087   -5.2965    8.2489 C.2       1 <0>         0.7136
     21 O2          0.0469   -4.7828    9.3492 O.2       1 <0>        -0.5672
     22 N4          0.2616   -6.6307    8.1357 N.am      1 <0>        -0.7400
     23 C17         0.3532   -7.4622    9.3384 C.3       1 <0>         0.1520
     24 C18        -0.0966   -8.8870    9.0089 C.3       1 <0>        -0.1626
     25 C19         1.8009   -7.4860    9.8329 C.3       1 <0>        -0.1667
     26 H1          2.0939    1.8161    4.1997 H         1 <0>         0.0706
     27 H2          3.4058    1.8386    2.9969 H         1 <0>         0.0660
     28 H3          1.7080    1.8520    2.4624 H         1 <0>         0.0675
     29 H4          4.4307   -0.1995    3.8280 H         1 <0>         0.1167
     30 H5          4.4342   -2.6598    3.7811 H         1 <0>         0.1169
     31 H6          2.4073   -3.8833    3.1085 H         1 <0>         0.1112
     32 H7          0.0228    0.2518    1.3610 H         1 <0>         0.0643
     33 H8         -0.8658   -0.5446    2.6817 H         1 <0>         0.0582
     34 H9         -0.0146    0.9898    2.9803 H         1 <0>         0.0689
     35 H10        -0.7119   -2.3090    2.2048 H         1 <0>         0.4107
     36 H11         0.2470   -4.1681    0.1413 H         1 <0>         0.1365
     37 H12         0.2919   -6.6156   -0.0516 H         1 <0>         0.1350
     38 H13         0.2035   -8.0240    1.9632 H         1 <0>         0.1351
     39 H14         0.0695   -6.9960    4.1889 H         1 <0>         0.1256
     40 H15         0.2057   -6.0836    5.7931 H         1 <0>         0.4155
     41 H16        -0.0855   -3.5712    7.2240 H         1 <0>         0.4439
     42 H17         0.3109   -7.0405    7.2579 H         1 <0>         0.3884
     43 H18        -0.2895   -7.0489   10.1157 H         1 <0>         0.0926
     44 H19         0.5461   -9.3003    8.2316 H         1 <0>         0.0613
     45 H20        -0.0285   -9.5056    9.9037 H         1 <0>         0.0777
     46 H21        -1.1280   -8.8700    8.6566 H         1 <0>         0.0628
     47 H22         2.4436   -7.8993    9.0556 H         1 <0>         0.0565
     48 H23         2.1213   -6.4709   10.0677 H         1 <0>         0.0625
     49 H24         1.8690   -8.1046   10.7277 H         1 <0>         0.0690
@<TRIPOS>BOND
     1    1    2 1
     2    1   26 1
     3    1   27 1
     4    1   28 1
     5    2    7 ar
     6    2    3 ar
     7    3    4 ar
     8    3   29 1
     9    4    5 ar
    10    4   30 1
    11    5    6 ar
    12    5   31 1
    13    6    7 ar
    14    6    9 1
    15    7    8 1
    16    8   32 1
    17    8   33 1
    18    8   34 1
    19    9   10 1
    20    9   35 1
    21   10   15 ar
    22   10   11 ar
    23   11   12 ar
    24   11   36 1
    25   12   13 ar
    26   12   37 1
    27   13   14 ar
    28   13   38 1
    29   14   15 ar
    30   14   39 1
    31   15   16 1
    32   16   17 2
    33   16   18 am
    34   18   19 1
    35   18   40 1
    36   19   20 am
    37   19   41 1
    38   20   21 2
    39   20   22 am
    40   22   23 1
    41   22   42 1
    42   23   24 1
    43   23   25 1
    44   23   43 1
    45   24   44 1
    46   24   45 1
    47   24   46 1
    48   25   47 1
    49   25   48 1
    50   25   49 1
@<TRIPOS>MOLECULE
ZINC21513303
   32    34     0     0     0
SMALL
USER_CHARGES
5-[(R)-amino-(2,4-dichlorophenyl)methyl]-1,3-dihydrobenzimidazol-2-one
@<TRIPOS>ATOM
      1 C1         -2.5128    4.9836    2.2911 C.ar      1 <0>        -0.1085
      2 C2         -2.9502    5.1095    3.5954 C.ar      1 <0>        -0.0929
      3 C3         -3.9183    4.2464    4.0848 C.ar      1 <0>         0.1122
      4 C4         -4.4472    3.2534    3.2573 C.ar      1 <0>         0.0947
      5 C5         -4.0061    3.1384    1.9482 C.ar      1 <0>        -0.0704
      6 C6         -3.0369    3.9996    1.4711 C.ar      1 <0>        -0.1387
      7 C7         -2.5528    3.8708    0.0498 C.3       1 <0>         0.1495
      8 H1         -3.2965    3.3331   -0.5566 H         1 <0>         0.1540
      9 C8         -1.2379    3.1347    0.0317 C.ar      1 <0>        -0.1217
     10 C9         -0.0501    3.8419    0.0237 C.ar      1 <0>        -0.1015
     11 C10         1.1561    3.1675    0.0081 C.ar      1 <0>        -0.0885
     12 C11         1.1755    1.7839    0.0004 C.ar      1 <0>        -0.0067
     13 C12        -0.0126    1.0758    0.0080 C.ar      1 <0>        -0.0882
     14 C13        -1.2198    1.7515    0.0174 C.ar      1 <0>         0.0013
     15 Cl1        -2.7116    0.8637    0.0189 Cl        1 <0>        -0.0329
     16 Cl2         2.6908    0.9369   -0.0181 Cl        1 <0>        -0.0244
     17 N1         -2.3729    5.2088   -0.5293 N.4       1 <0>        -0.6846
     18 N2         -5.3835    2.5544    4.0155 N.am      1 <0>        -0.6529
     19 H2         -5.9369    1.7152    3.5688 H         1 <0>         0.4720
     20 C14        -5.4223    3.0969    5.2471 C.2       1 <0>         0.7012
     21 O1         -6.1377    2.7201    6.1565 O.2       1 <0>        -0.5326
     22 N3         -4.5497    4.1197    5.3198 N.am      1 <0>        -0.6526
     23 H3         -4.2919    4.8034    6.1420 H         1 <0>         0.4739
     24 H4         -1.7588    5.6562    1.9095 H         1 <0>         0.1276
     25 H5         -2.5392    5.8788    4.2322 H         1 <0>         0.1438
     26 H6         -4.4159    2.3746    1.3040 H         1 <0>         0.1383
     27 H7         -0.0647    4.9218    0.0301 H         1 <0>         0.1375
     28 H8          2.0838    3.7205    0.0022 H         1 <0>         0.1541
     29 H9          0.0021   -0.0041    0.0020 H         1 <0>         0.1580
     30 H10        -2.0195    5.1148   -1.5668 H         1 <0>         0.4636
     31 H11        -1.6318    5.7673    0.0613 H         1 <0>         0.4486
     32 H12        -3.3327    5.7461   -0.5161 H         1 <0>         0.4670
@<TRIPOS>BOND
     1    1    6 ar
     2    1    2 ar
     3    1   24 1
     4    2    3 ar
     5    2   25 1
     6    3   22 1
     7    3    4 ar
     8    4    5 ar
     9    4   18 1
    10    5    6 ar
    11    5   26 1
    12    6    7 1
    13    7    8 1
    14    7    9 1
    15    7   17 1
    16    9   14 ar
    17    9   10 ar
    18   10   11 ar
    19   10   27 1
    20   11   12 ar
    21   11   28 1
    22   12   13 ar
    23   12   16 1
    24   13   14 ar
    25   13   29 1
    26   14   15 1
    27   17   30 1
    28   17   31 1
    29   17   32 1
    30   18   19 1
    31   18   20 am
    32   20   21 2
    33   20   22 am
    34   22   23 1
@<TRIPOS>MOLECULE
ZINC37365725
   32    34     0     0     0
SMALL
USER_CHARGES

@<TRIPOS>ATOM
      1 C1         -0.0167    1.3798    0.0096 C.ar      1 <0>        -0.1055
      2 C2          1.1667    2.0926    0.0022 C.ar      1 <0>        -0.0895
      3 C3          2.3780    1.4188   -0.0130 C.ar      1 <0>         0.1250
      4 C4          2.3969    0.0222   -0.0206 C.ar      1 <0>         0.1049
      5 C5          1.2043   -0.6844   -0.0141 C.ar      1 <0>        -0.0651
      6 C6          0.0021   -0.0041    0.0020 C.ar      1 <0>        -0.1420
      7 C7         -1.2945   -0.7721    0.0107 C.3       1 <0>         0.1415
      8 H1         -1.1185   -1.7862   -0.3480 H         1 <0>         0.1618
      9 C8         -1.8386   -0.8233    1.4151 C.ar      1 <0>        -0.1141
     10 C9         -2.8490    0.0396    1.7968 C.ar      1 <0>        -0.1118
     11 C10        -3.3483   -0.0069    3.0846 C.ar      1 <0>        -0.0671
     12 C11        -2.8373   -0.9171    3.9927 C.ar      1 <0>        -0.0635
     13 C12        -1.8270   -1.7809    3.6115 C.ar      1 <0>        -0.0663
     14 C13        -1.3309   -1.7377    2.3206 C.ar      1 <0>        -0.0032
     15 Cl1        -0.0666   -2.8257    1.8394 Cl        1 <0>        -0.0316
     16 Br1        -3.5200   -0.9796    5.7550 Br        1 <0>        -0.0004
     17 N1         -2.2652   -0.1040   -0.8664 N.4       1 <0>        -0.6340
     18 N2          3.7356   -0.3620   -0.0347 N.am      1 <0>        -0.6389
     19 H2          4.0642   -1.2746   -0.0428 H         1 <0>         0.4428
     20 C14         4.4959    0.7492   -0.0355 C.2       1 <0>         0.6857
     21 O1          5.7126    0.7658   -0.0470 O.2       1 <0>        -0.5257
     22 N3          3.7058    1.8393   -0.0226 N.am      1 <0>        -0.6383
     23 H3          4.0095    2.7605   -0.0204 H         1 <0>         0.4442
     24 H4         -0.9604    1.9046    0.0260 H         1 <0>         0.1312
     25 H5          1.1481    3.1724    0.0077 H         1 <0>         0.1475
     26 H6          1.2151   -1.7643   -0.0202 H         1 <0>         0.1421
     27 H7         -3.2479    0.7506    1.0885 H         1 <0>         0.1369
     28 H8         -4.1374    0.6677    3.3824 H         1 <0>         0.1546
     29 H9         -1.4278   -2.4916    4.3201 H         1 <0>         0.1585
     30 H10        -1.9010   -0.0697   -1.8067 H         1 <0>         0.4459
     31 H11        -3.1334   -0.6182   -0.8606 H         1 <0>         0.4428
     32 H12        -2.4282    0.8348   -0.5344 H         1 <0>         0.4317
@<TRIPOS>BOND
     1    1    6 ar
     2    1    2 ar
     3    1   24 1
     4    2    3 ar
     5    2   25 1
     6    3   22 1
     7    3    4 ar
     8    4    5 ar
     9    4   18 1
    10    5    6 ar
    11    5   26 1
    12    6    7 1
    13    7    8 1
    14    7    9 1
    15    7   17 1
    16    9   14 ar
    17    9   10 ar
    18   10   11 ar
    19   10   27 1
    20   11   12 ar
    21   11   28 1
    22   12   13 ar
    23   12   16 1
    24   13   14 ar
    25   13   29 1
    26   14   15 1
    27   17   30 1
    28   17   31 1
    29   17   32 1
    30   18   19 1
    31   18   20 am
    32   20   21 2
    33   20   22 am
    34   22   23 1
@<TRIPOS>MOLECULE
ZINC42397951
   37    38     0     0     0
SMALL
USER_CHARGES

@<TRIPOS>ATOM
      1 C1         -0.0248    1.4621    0.0028 C.3       1 <0>        -0.0646
      2 N1          0.0025   -0.0066    0.0030 N.4       1 <0>        -0.3743
      3 C2         -1.3731   -0.5219    0.0178 C.3       1 <0>         0.0979
      4 C3         -2.0404   -0.1354    1.3125 C.2       1 <0>        -0.2612
      5 C4         -2.7625    0.9746    1.6025 C.2       1 <0>        -0.0670
      6 C5         -3.2868    1.1202    2.8736 C.2       1 <0>        -0.1531
      7 C6         -3.0629    0.1483    3.7921 C.2       1 <0>        -0.0907
      8 S1         -2.0916   -1.0242    2.8599 S.3       1 <0>         0.1414
      9 Br1        -4.3001    2.6519    3.3243 Br        1 <0>        -0.0034
     10 C7          0.6911   -0.4837   -1.2037 C.3       1 <0>        -0.0300
     11 C8          2.1361   -0.0582   -1.1588 C.2       1 <0>         0.5018
     12 O1          2.5514    0.5798   -0.2145 O.2       1 <0>        -0.5069
     13 N2          2.9670   -0.3865   -2.1679 N.am      1 <0>        -0.6425
     14 C9          4.2831    0.0899   -2.1740 C.ar      1 <0>         0.1713
     15 C10         4.8966    0.4217   -3.3754 C.ar      1 <0>        -0.1807
     16 C11         6.1957    0.8921   -3.3830 C.ar      1 <0>        -0.0388
     17 C12         6.8892    1.0341   -2.1955 C.ar      1 <0>        -0.1196
     18 C13         6.2804    0.7037   -0.9901 C.ar      1 <0>         0.2485
     19 C14         4.9738    0.2365   -0.9798 C.ar      1 <0>        -0.1872
     20 N3          6.9817    0.8469    0.2102 N.pl3     1 <0>        -0.8630
     21 Cl1         8.5215    1.6250   -2.2096 Cl        1 <0>        -0.0571
     22 H1          0.9959    1.8445   -0.0081 H         1 <0>         0.1431
     23 H2         -0.5547    1.8156   -0.8817 H         1 <0>         0.1233
     24 H3         -0.5358    1.8162    0.8982 H         1 <0>         0.1250
     25 H4         -1.9290   -0.0976   -0.8183 H         1 <0>         0.1530
     26 H5         -1.3552   -1.6081   -0.0716 H         1 <0>         0.1475
     27 H6         -2.9255    1.7340    0.8520 H         1 <0>         0.1531
     28 H7         -3.3911    0.0950    4.8196 H         1 <0>         0.2098
     29 H8          0.6339   -1.5713   -1.2486 H         1 <0>         0.1658
     30 H9          0.2143   -0.0580   -2.0865 H         1 <0>         0.1671
     31 H10         2.6529   -0.9530   -2.8900 H         1 <0>         0.4229
     32 H11         4.3576    0.3115   -4.3048 H         1 <0>         0.1362
     33 H12         6.6705    1.1490   -4.3184 H         1 <0>         0.1439
     34 H13         4.4970   -0.0167   -0.0444 H         1 <0>         0.1447
     35 H14         7.8937    1.1770    0.2026 H         1 <0>         0.4072
     36 H15         6.5564    0.6161    1.0509 H         1 <0>         0.4045
     37 H16         0.4930   -0.3338    0.8218 H         1 <0>         0.4322
@<TRIPOS>BOND
     1    1    2 1
     2    1   22 1
     3    1   23 1
     4    1   24 1
     5    2    3 1
     6    2   10 1
     7    2   37 1
     8    3    4 1
     9    3   25 1
    10    3   26 1
    11    4    8 1
    12    4    5 2
    13    5    6 1
    14    5   27 1
    15    6    7 2
    16    6    9 1
    17    7    8 1
    18    7   28 1
    19   10   11 1
    20   10   29 1
    21   10   30 1
    22   11   12 2
    23   11   13 am
    24   13   14 1
    25   13   31 1
    26   14   19 ar
    27   14   15 ar
    28   15   16 ar
    29   15   32 1
    30   16   17 ar
    31   16   33 1
    32   17   18 ar
    33   17   21 1
    34   18   19 ar
    35   18   20 1
    36   19   34 1
    37   20   35 1
    38   20   36 1
@<TRIPOS>MOLECULE
ZINC07126150
   42    45     0     0     0
SMALL
USER_CHARGES

@<TRIPOS>ATOM
      1 C1         -0.1326    1.0695   -0.1242 C.ar      1 <0>        -0.1123
      2 C2          1.0077    1.8595   -0.1224 C.ar      1 <0>        -0.0734
      3 C3          2.2592    1.2807   -0.1032 C.ar      1 <0>        -0.1117
      4 C4          2.3839   -0.1010   -0.0847 C.ar      1 <0>         0.0843
      5 C5          1.2298   -0.9059   -0.0840 C.ar      1 <0>         0.0569
      6 C6         -0.0299   -0.3032   -0.1052 C.ar      1 <0>        -0.0516
      7 N1          1.6420   -2.2029   -0.0591 N.2       1 <0>        -0.4476
      8 C7          2.9422   -2.2462   -0.0438 C.2       1 <0>         0.4698
      9 N2          3.4510   -0.9708   -0.0673 N.pl3     1 <0>        -0.5214
     10 C8          4.8861   -0.6682   -0.0797 C.3       1 <0>         0.4497
     11 H1          5.1047    0.1152    0.6460 H         1 <0>         0.1552
     12 N3          5.6078   -1.9021    0.2838 N.pl3     1 <0>        -0.7346
     13 C9          5.1262   -3.1048   -0.2125 C.cat     1 <0>         0.7688
     14 N4          3.7708   -3.3655   -0.0064 N.pl3     1 <0>        -0.6056
     15 N5          5.8988   -3.9470   -0.8379 N.pl3     1 <0>        -0.7001
     16 C10         5.3015   -0.2188   -1.4569 C.ar      1 <0>        -0.2093
     17 C11         4.4761   -0.4576   -2.5393 C.ar      1 <0>        -0.0178
     18 C12         4.8541   -0.0468   -3.8030 C.ar      1 <0>        -0.2094
     19 C13         6.0643    0.6069   -3.9884 C.ar      1 <0>         0.1836
     20 C14         6.8940    0.8476   -2.9044 C.ar      1 <0>        -0.2099
     21 C15         6.5097    0.4394   -1.6362 C.ar      1 <0>         0.1829
     22 O1          7.3182    0.6792   -0.5705 O.3       1 <0>        -0.3228
     23 C16         8.5470    1.3614   -0.8289 C.3       1 <0>         0.4130
     24 F1          9.3174    0.6115   -1.7240 F         1 <0>        -0.1907
     25 F2          8.2757    2.6162   -1.3849 F         1 <0>        -0.1864
     26 O2          6.4358    1.0103   -5.2318 O.3       1 <0>        -0.3101
     27 C17         5.5320    0.7286   -6.3023 C.3       1 <0>         0.4120
     28 F3          5.3385   -0.6536   -6.3977 F         1 <0>        -0.1941
     29 F4          4.3060    1.3552   -6.0545 F         1 <0>        -0.1903
     30 H2         -1.1073    1.5344   -0.1362 H         1 <0>         0.1436
     31 H3          0.9146    2.9354   -0.1365 H         1 <0>         0.1430
     32 H4          3.1421    1.9028   -0.1028 H         1 <0>         0.1301
     33 H5         -0.9216   -0.9126   -0.1071 H         1 <0>         0.1419
     34 H6          6.3939   -1.8736    0.8513 H         1 <0>         0.4571
     35 H7          6.8377   -3.7401   -0.9668 H         1 <0>         0.4556
     36 H8          3.5342   -0.9664   -2.3970 H         1 <0>         0.1362
     37 H9          4.2075   -0.2349   -4.6474 H         1 <0>         0.1490
     38 H10         7.8360    1.3561   -3.0467 H         1 <0>         0.1586
     39 H11         9.0953    1.4885    0.1045 H         1 <0>         0.1943
     40 H12         5.9487    1.1026   -7.2375 H         1 <0>         0.1948
     41 H13         3.4306   -4.2601    0.1511 H         1 <0>         0.4677
     42 H14         5.5353   -4.7809   -1.1745 H         1 <0>         0.4512
@<TRIPOS>BOND
     1    1    6 ar
     2    1    2 ar
     3    1   30 1
     4    2    3 ar
     5    2   31 1
     6    3    4 ar
     7    3   32 1
     8    4    9 1
     9    4    5 ar
    10    5    6 ar
    11    5    7 1
    12    6   33 1
    13    7    8 2
    14    8   14 1
    15    8    9 1
    16    9   10 1
    17   10   11 1
    18   10   12 1
    19   10   16 1
    20   12   13 1
    21   12   34 1
    22   13   14 1
    23   13   15 2
    24   14   41 1
    25   15   35 1
    26   15   42 1
    27   16   21 ar
    28   16   17 ar
    29   17   18 ar
    30   17   36 1
    31   18   19 ar
    32   18   37 1
    33   19   20 ar
    34   19   26 1
    35   20   21 ar
    36   20   38 1
    37   21   22 1
    38   22   23 1
    39   23   24 1
    40   23   25 1
    41   23   39 1
    42   26   27 1
    43   27   28 1
    44   27   29 1
    45   27   40 1
@<TRIPOS>MOLECULE
ZINC19939927
   40    42     0     0     0
SMALL
USER_CHARGES

@<TRIPOS>ATOM
      1 C1         -0.0167    1.3786    0.0096 C.ar      1 <0>        -0.0942
      2 C2          1.1696    2.0890    0.0021 C.ar      1 <0>        -0.0974
      3 C3          2.3774    1.4191   -0.0130 C.ar      1 <0>        -0.0894
      4 C4          2.3995    0.0308   -0.0207 C.ar      1 <0>         0.1051
      5 C5          1.2066   -0.6797   -0.0132 C.ar      1 <0>        -0.1094
      6 C6          0.0021   -0.0041    0.0020 C.ar      1 <0>        -0.0964
      7 N1          3.6234   -0.6519   -0.0366 N.pl3     1 <0>        -0.2808
      8 C7          3.8802   -1.8259    0.5783 C.2       1 <0>         0.3623
      9 C8          5.2043   -2.1480    0.3103 C.2       1 <0>        -0.3319
     10 C9          5.7288   -1.1105   -0.4948 C.2       1 <0>         0.1588
     11 N2          4.7840   -0.2351   -0.6974 N.2       1 <0>        -0.2201
     12 C10         7.1350   -1.0331   -1.0311 C.3       1 <0>        -0.0591
     13 S1          7.2098   -1.8452   -2.6515 S.3       1 <0>        -0.0744
     14 C11         8.8945   -1.6723   -3.1376 C.ar      1 <0>        -0.0956
     15 C12         9.7971   -1.0248   -2.3027 C.ar      1 <0>        -0.1196
     16 C13        11.1168   -0.8908   -2.6865 C.ar      1 <0>        -0.0888
     17 C14        11.5408   -1.4007   -3.9012 C.ar      1 <0>        -0.0311
     18 C15        10.6443   -2.0461   -4.7349 C.ar      1 <0>        -0.0875
     19 C16         9.3246   -2.1882   -4.3541 C.ar      1 <0>        -0.0795
     20 Cl1        13.2006   -1.2298   -4.3805 Cl        1 <0>        -0.0512
     21 C17         5.9254   -3.3426    0.7768 C.cat     1 <0>         0.6483
     22 N3          6.1497   -3.5200    2.0806 N.pl3     1 <0>        -0.7483
     23 N4          6.3552   -4.2490   -0.1039 N.pl3     1 <0>        -0.7494
     24 O1          3.0102   -2.5528    1.3183 O.3       1 <0>        -0.4490
     25 H1         -0.9598    1.9047    0.0260 H         1 <0>         0.1408
     26 H2          1.1518    3.1689    0.0077 H         1 <0>         0.1435
     27 H3          3.3036    1.9745   -0.0193 H         1 <0>         0.1400
     28 H4          1.2206   -1.7596   -0.0195 H         1 <0>         0.1258
     29 H5         -0.9261   -0.5562    0.0083 H         1 <0>         0.1430
     30 H6          7.4275    0.0118   -1.1345 H         1 <0>         0.1289
     31 H7          7.8148   -1.5342   -0.3419 H         1 <0>         0.1138
     32 H8          9.4667   -0.6263   -1.3548 H         1 <0>         0.1306
     33 H9         11.8187   -0.3873   -2.0382 H         1 <0>         0.1419
     34 H10        10.9781   -2.4427   -5.6824 H         1 <0>         0.1456
     35 H11         8.6265   -2.6962   -5.0029 H         1 <0>         0.1411
     36 H12         5.8374   -2.8614    2.7206 H         1 <0>         0.4486
     37 H13         6.1922   -4.1200   -1.0514 H         1 <0>         0.4483
     38 H14         6.8306   -5.0366    0.2036 H         1 <0>         0.4329
     39 H15         2.5044   -3.1997    0.8077 H         1 <0>         0.4215
     40 H16         6.6252   -4.3076    2.3882 H         1 <0>         0.4323
@<TRIPOS>BOND
     1    1    6 ar
     2    1    2 ar
     3    1   25 1
     4    2    3 ar
     5    2   26 1
     6    3    4 ar
     7    3   27 1
     8    4    5 ar
     9    4    7 1
    10    5    6 ar
    11    5   28 1
    12    6   29 1
    13    7   11 1
    14    7    8 1
    15    8    9 2
    16    8   24 1
    17    9   10 1
    18    9   21 1
    19   10   11 2
    20   10   12 1
    21   12   13 1
    22   12   30 1
    23   12   31 1
    24   13   14 1
    25   14   19 ar
    26   14   15 ar
    27   15   16 ar
    28   15   32 1
    29   16   17 ar
    30   16   33 1
    31   17   18 ar
    32   17   20 1
    33   18   19 ar
    34   18   34 1
    35   19   35 1
    36   21   22 2
    37   21   23 1
    38   22   36 1
    39   22   40 1
    40   23   37 1
    41   23   38 1
    42   24   39 1
@<TRIPOS>MOLECULE
ZINC19510619
   32    33     0     0     0
SMALL
USER_CHARGES
2-amino-N-(4-bromo-3-methyl-phenyl)benzenesulfonamide
@<TRIPOS>ATOM
      1 C1         -1.6552    5.5361   -4.4262 C.3       1 <0>        -0.1266
      2 C2         -1.6541    4.9628   -3.0325 C.ar      1 <0>        -0.0306
      3 C3         -1.2672    3.6530   -2.8256 C.ar      1 <0>        -0.1299
      4 C4         -1.2660    3.1255   -1.5409 C.ar      1 <0>         0.1878
      5 C5         -1.6592    3.9157   -0.4680 C.ar      1 <0>        -0.1676
      6 C6         -2.0398    5.2259   -0.6804 C.ar      1 <0>        -0.0537
      7 C7         -2.0400    5.7489   -1.9616 C.ar      1 <0>        -0.1097
      8 Br1        -2.5684    7.5417   -2.2490 Br        1 <0>        -0.0440
      9 N1         -0.8757    1.8008   -1.3285 N.pl3     1 <0>        -1.0754
     10 S1          0.1584    1.4309   -0.0890 S.o2      1 <0>         2.6935
     11 O1          0.3739    0.0274   -0.1451 O.2       1 <0>        -0.9538
     12 O2          1.2240    2.3685   -0.1556 O.2       1 <0>        -0.9443
     13 C8         -0.6989    1.7489    1.4171 C.ar      1 <0>        -0.7635
     14 C9         -0.2478    2.7332    2.2749 C.ar      1 <0>         0.0206
     15 C10        -0.9227    2.9866    3.4547 C.ar      1 <0>        -0.1979
     16 C11        -2.0450    2.2490    3.7852 C.ar      1 <0>        -0.0136
     17 C12        -2.4983    1.2600    2.9348 C.ar      1 <0>        -0.2180
     18 C13        -1.8256    1.0063    1.7460 C.ar      1 <0>         0.3250
     19 N2         -2.2811    0.0064    0.8837 N.pl3     1 <0>        -0.8878
     20 H1         -1.3211    4.7678   -5.1390 H         1 <0>         0.0733
     21 H2         -0.9725    6.3975   -4.4688 H         1 <0>         0.0819
     22 H3         -2.6728    5.8614   -4.6880 H         1 <0>         0.0810
     23 H4         -0.9663    3.0397   -3.6620 H         1 <0>         0.1389
     24 H5         -1.6632    3.5069    0.5316 H         1 <0>         0.1437
     25 H6         -2.3417    5.8420    0.1538 H         1 <0>         0.1392
     26 H7         -1.2553    1.0036   -1.9846 H         1 <0>         0.4518
     27 H8          0.6308    3.3080    2.0219 H         1 <0>         0.1419
     28 H9         -0.5701    3.7593    4.1218 H         1 <0>         0.1310
     29 H10        -2.5673    2.4465    4.7097 H         1 <0>         0.1307
     30 H11        -3.3745    0.6842    3.1937 H         1 <0>         0.1300
     31 H12        -3.1736   -0.5810    1.1454 H         1 <0>         0.4318
     32 H13        -1.7474   -0.1937   -0.0571 H         1 <0>         0.4140
@<TRIPOS>BOND
     1    1    2 1
     2    1   20 1
     3    1   21 1
     4    1   22 1
     5    2    7 ar
     6    2    3 ar
     7    3    4 ar
     8    3   23 1
     9    4    5 ar
    10    4    9 1
    11    5    6 ar
    12    5   24 1
    13    6    7 ar
    14    6   25 1
    15    7    8 1
    16    9   10 1
    17    9   26 1
    18   10   11 2
    19   10   12 2
    20   10   13 1
    21   13   18 ar
    22   13   14 ar
    23   14   15 ar
    24   14   27 1
    25   15   16 ar
    26   15   28 1
    27   16   17 ar
    28   16   29 1
    29   17   18 ar
    30   17   30 1
    31   18   19 1
    32   19   31 1
    33   19   32 1
@<TRIPOS>MOLECULE
ZINC22151466
   38    39     0     0     0
SMALL
USER_CHARGES
(2S)-N-(3-amino-2-methyl-phenyl)-2-(3-chlorophenoxy)propanamide
@<TRIPOS>ATOM
      1 C1          7.4304    3.3396   -2.8562 C.3       1 <0>        -0.1000
      2 C2          7.5117    1.8349   -2.8674 C.ar      1 <0>        -0.2003
      3 C3          8.4174    1.1934   -3.7010 C.ar      1 <0>         0.2445
      4 C4          8.4860   -0.1943   -3.7127 C.ar      1 <0>        -0.2142
      5 C5          7.6573   -0.9352   -2.8922 C.ar      1 <0>        -0.0562
      6 C6          6.7585   -0.2995   -2.0576 C.ar      1 <0>        -0.1819
      7 C7          6.6852    1.0880   -2.0408 C.ar      1 <0>         0.1947
      8 N1          5.7745    1.7309   -1.1952 N.am      1 <0>        -0.6780
      9 C8          4.5747    1.1698   -0.9457 C.2       1 <0>         0.5176
     10 O1          4.3148    0.0714   -1.3895 O.2       1 <0>        -0.4933
     11 C9          3.5562    1.9073   -0.1151 C.3       1 <0>         0.0634
     12 H1          3.2506    2.8366   -0.6181 H         1 <0>         0.1074
     13 C10         4.1331    2.1801    1.2755 C.3       1 <0>        -0.1740
     14 O2          2.3751    1.1121    0.0068 O.3       1 <0>        -0.2827
     15 C11         1.1888    1.7732    0.0577 C.ar      1 <0>         0.1443
     16 C12        -0.0033    1.0630    0.0493 C.ar      1 <0>        -0.1423
     17 C13        -1.2081    1.7365    0.1015 C.ar      1 <0>        -0.0642
     18 C14        -1.2275    3.1177    0.1627 C.ar      1 <0>        -0.1475
     19 C15        -0.0405    3.8285    0.1760 C.ar      1 <0>         0.0060
     20 C16         1.1679    3.1586    0.1186 C.ar      1 <0>        -0.2095
     21 Cl1        -0.0682    5.5622    0.2595 Cl        1 <0>        -0.0635
     22 N2          9.2554    1.9419   -4.5307 N.pl3     1 <0>        -0.8985
     23 H2          8.1570    3.7514   -3.5720 H         1 <0>         0.0620
     24 H3          7.6591    3.7116   -1.8466 H         1 <0>         0.0629
     25 H4          6.4157    3.6541   -3.1418 H         1 <0>         0.0644
     26 H5          9.1876   -0.6942   -4.3640 H         1 <0>         0.1189
     27 H6          7.7125   -2.0138   -2.9030 H         1 <0>         0.1232
     28 H7          6.1124   -0.8816   -1.4173 H         1 <0>         0.1337
     29 H8          6.0377    2.6943   -0.7340 H         1 <0>         0.4310
     30 H9          3.3897    2.7184    1.8817 H         1 <0>         0.0800
     31 H10         5.0423    2.7921    1.1817 H         1 <0>         0.0816
     32 H11         4.3821    1.2259    1.7628 H         1 <0>         0.0807
     33 H12         0.0109   -0.0158    0.0016 H         1 <0>         0.1404
     34 H13        -2.1359    1.1837    0.0950 H         1 <0>         0.1425
     35 H14        -2.1706    3.6424    0.2038 H         1 <0>         0.1370
     36 H15         2.0944    3.7134    0.1256 H         1 <0>         0.1403
     37 H16         9.9729    1.4329   -5.1911 H         1 <0>         0.4167
     38 H17         9.1978    3.0404   -4.5238 H         1 <0>         0.4126
@<TRIPOS>BOND
     1    1    2 1
     2    1   23 1
     3    1   24 1
     4    1   25 1
     5    2    7 ar
     6    2    3 ar
     7    3    4 ar
     8    3   22 1
     9    4    5 ar
    10    4   26 1
    11    5    6 ar
    12    5   27 1
    13    6    7 ar
    14    6   28 1
    15    7    8 1
    16    8    9 am
    17    8   29 1
    18    9   10 2
    19    9   11 1
    20   11   12 1
    21   11   13 1
    22   11   14 1
    23   13   30 1
    24   13   31 1
    25   13   32 1
    26   14   15 1
    27   15   20 ar
    28   15   16 ar
    29   16   17 ar
    30   16   33 1
    31   17   18 ar
    32   17   34 1
    33   18   19 ar
    34   18   35 1
    35   19   20 ar
    36   19   21 1
    37   20   36 1
    38   22   37 1
    39   22   38 1
@<TRIPOS>MOLECULE
ZINC37064249
   29    30     0     0     0
SMALL
USER_CHARGES

@<TRIPOS>ATOM
      1 C1          0.3625    0.8477    0.3273 C.ar      1 <0>        -0.0824
      2 C2          1.4027    1.7463    0.1855 C.ar      1 <0>        -0.1391
      3 C3          2.7109    1.2874    0.1153 C.ar      1 <0>         0.1365
      4 C4          2.9708   -0.0770    0.1880 C.ar      1 <0>         0.0894
      5 C5          1.9248   -0.9712    0.3300 C.ar      1 <0>        -0.0537
      6 C6          0.6221   -0.5080    0.3994 C.ar      1 <0>        -0.0948
      7 Cl1         2.2460   -2.6748    0.4210 Cl        1 <0>        -0.0387
      8 F1          4.2424   -0.5283    0.1198 F         1 <0>        -0.1211
      9 N1          3.7651    2.1949   -0.0286 N.pl3     1 <0>        -1.0551
     10 S1          3.6921    3.6734    0.7137 S.o2      1 <0>         2.6928
     11 O1          4.9496    4.2989    0.4975 O.2       1 <0>        -0.9407
     12 O2          2.4659    4.2691    0.3126 O.2       1 <0>        -0.9404
     13 C7          3.5666    3.3806    2.4467 C.ar      1 <0>        -0.7446
     14 C8          2.4338    3.7716    3.1335 C.ar      1 <0>         0.0335
     15 C9          2.3339    3.5421    4.4931 C.ar      1 <0>        -0.1674
     16 C10         3.3682    2.9204    5.1708 C.ar      1 <0>         0.0124
     17 C11         4.5042    2.5273    4.4895 C.ar      1 <0>        -0.1842
     18 C12         4.6044    2.7513    3.1222 C.ar      1 <0>         0.3233
     19 N2          5.7488    2.3501    2.4293 N.pl3     1 <0>        -0.8589
     20 Br1         3.2268    2.6093    7.0306 Br        1 <0>        -0.0296
     21 H1         -0.6547    1.2056    0.3863 H         1 <0>         0.1513
     22 H2          1.1979    2.8052    0.1289 H         1 <0>         0.1765
     23 H3         -0.1933   -1.2076    0.5103 H         1 <0>         0.1493
     24 H4          4.5391    1.9583   -0.5633 H         1 <0>         0.4305
     25 H5          1.6252    4.2576    2.6078 H         1 <0>         0.1543
     26 H6          1.4470    3.8488    5.0277 H         1 <0>         0.1440
     27 H7          5.3113    2.0426    5.0186 H         1 <0>         0.1434
     28 H8          5.7823    2.4262    1.4629 H         1 <0>         0.3986
     29 H9          6.5101    1.9953    2.9146 H         1 <0>         0.4148
@<TRIPOS>BOND
     1    1    6 ar
     2    1    2 ar
     3    1   21 1
     4    2    3 ar
     5    2   22 1
     6    3    4 ar
     7    3    9 1
     8    4    5 ar
     9    4    8 1
    10    5    6 ar
    11    5    7 1
    12    6   23 1
    13    9   10 1
    14    9   24 1
    15   10   11 2
    16   10   12 2
    17   10   13 1
    18   13   18 ar
    19   13   14 ar
    20   14   15 ar
    21   14   25 1
    22   15   16 ar
    23   15   26 1
    24   16   17 ar
    25   16   20 1
    26   17   18 ar
    27   17   27 1
    28   18   19 1
    29   19   28 1
    30   19   29 1
@<TRIPOS>MOLECULE
ZINC51151471
   33    35     0     0     0
SMALL
USER_CHARGES

@<TRIPOS>ATOM
      1 C1         -1.2982    1.4256    0.4515 C.3       1 <0>        -0.1168
      2 C2         -1.1565   -0.0739    0.4012 C.2       1 <0>        -0.0900
      3 C3         -1.7087   -0.7743   -0.6011 C.2       1 <0>        -0.1423
      4 S1         -1.2732   -2.4607   -0.2205 S.3       1 <0>         0.1151
      5 C4         -0.3614   -2.1798    1.2743 C.ar      1 <0>         0.1525
      6 C5         -0.4158   -0.7765    1.4337 C.ar      1 <0>        -0.2362
      7 C6          0.2554   -0.2631    2.5789 C.ar      1 <0>         0.5014
      8 N1          0.8730   -1.0986    3.3953 N.ar      1 <0>        -0.5673
      9 C7          0.8895   -2.4107    3.1829 C.ar      1 <0>         0.4242
     10 N2          0.2723   -2.9464    2.1371 N.ar      1 <0>        -0.5084
     11 C8          1.6010   -3.2931    4.1379 C.ar      1 <0>        -0.0267
     12 C9          2.2407   -2.7476    5.2505 C.ar      1 <0>        -0.0461
     13 C10         2.9015   -3.5718    6.1375 C.ar      1 <0>        -0.1352
     14 C11         2.9314   -4.9404    5.9251 C.ar      1 <0>         0.0913
     15 C12         2.2970   -5.4889    4.8195 C.ar      1 <0>         0.0602
     16 C13         1.6276   -4.6712    3.9295 C.ar      1 <0>        -0.0749
     17 F1          2.3296   -6.8241    4.6160 F         1 <0>        -0.1233
     18 F2          3.5803   -5.7433    6.7965 F         1 <0>        -0.1230
     19 N3          0.2615    1.0964    2.8344 N.pl3     1 <0>        -0.5586
     20 N4          0.4814    1.5519    4.1033 N.3       1 <0>        -0.5974
     21 C14        -2.5074   -0.2582   -1.7702 C.3       1 <0>        -0.0719
     22 H1         -0.4114    1.8890    0.0192 H         1 <0>         0.0742
     23 H2         -2.1788    1.7266   -0.1160 H         1 <0>         0.0822
     24 H3         -1.4069    1.7457    1.4878 H         1 <0>         0.0718
     25 H4          2.2190   -1.6808    5.4173 H         1 <0>         0.1554
     26 H5          3.3969   -3.1492    6.9992 H         1 <0>         0.1543
     27 H6          1.1300   -5.0984    3.0714 H         1 <0>         0.1615
     28 H7          0.1096    1.7263    2.1125 H         1 <0>         0.4178
     29 H8          1.3539    1.1999    4.4677 H         1 <0>         0.3499
     30 H9          0.4568    2.5601    4.1349 H         1 <0>         0.3595
     31 H10        -1.8354   -0.0335   -2.5984 H         1 <0>         0.0834
     32 H11        -3.2269   -1.0157   -2.0813 H         1 <0>         0.0785
     33 H12        -3.0377    0.6477   -1.4764 H         1 <0>         0.0848
@<TRIPOS>BOND
     1    1    2 1
     2    1   22 1
     3    1   23 1
     4    1   24 1
     5    2    6 1
     6    2    3 2
     7    3    4 1
     8    3   21 1
     9    4    5 1
    10    5   10 ar
    11    5    6 ar
    12    6    7 ar
    13    7    8 ar
    14    7   19 1
    15    8    9 ar
    16    9   10 ar
    17    9   11 1
    18   11   16 ar
    19   11   12 ar
    20   12   13 ar
    21   12   25 1
    22   13   14 ar
    23   13   26 1
    24   14   15 ar
    25   14   18 1
    26   15   16 ar
    27   15   17 1
    28   16   27 1
    29   19   20 1
    30   19   28 1
    31   20   29 1
    32   20   30 1
    33   21   31 1
    34   21   32 1
    35   21   33 1
@<TRIPOS>MOLECULE
ZINC62609536
   34    36     0     0     0
SMALL
USER_CHARGES

@<TRIPOS>ATOM
      1 C1         -0.0162    1.3409    0.0094 C.2       1 <0>        -0.2139
      2 C2          1.3313    1.7689   -0.0012 C.2       1 <0>        -0.2077
      3 C3          2.0923    0.6599   -0.0144 C.2       1 <0>        -0.0107
      4 O1          1.2819   -0.4111   -0.0124 O.3       1 <0>        -0.1747
      5 C4          0.0021   -0.0041    0.0020 C.2       1 <0>        -0.0427
      6 C5          3.5989    0.6249   -0.0294 C.3       1 <0>        -0.0296
      7 C6          4.1229    0.6057    1.4079 C.3       1 <0>        -0.0377
      8 C7          5.6294    0.5707    1.3929 C.2       1 <0>         0.1363
      9 C8          6.4275   -0.5893    1.3734 C.2       1 <0>        -0.2848
     10 C9          7.7488   -0.1785    1.3638 C.2       1 <0>         0.3958
     11 N1          7.7482    1.1734    1.3771 N.pl3     1 <0>        -0.4964
     12 H1          8.5339    1.7421    1.3741 H         1 <0>         0.4383
     13 N2          6.4190    1.6113    1.3901 N.2       1 <0>        -0.2978
     14 N3          8.8673   -1.0016    1.3443 N.pl3     1 <0>        -0.8484
     15 C10         5.9421   -1.9910    1.3651 C.ar      1 <0>         0.0089
     16 C11         5.7060   -2.6419    0.1556 C.ar      1 <0>        -0.0672
     17 C12         5.2544   -3.9458    0.1526 C.ar      1 <0>        -0.1483
     18 C13         5.0349   -4.6084    1.3494 C.ar      1 <0>         0.1115
     19 C14         5.2674   -3.9663    2.5544 C.ar      1 <0>        -0.1497
     20 C15         5.7259   -2.6635    2.5676 C.ar      1 <0>         0.0002
     21 Cl1         6.0250   -1.8621    4.0782 Cl        1 <0>        -0.0490
     22 F1          4.5923   -5.8848    1.3410 F         1 <0>        -0.1329
     23 H2         -0.8920    1.9726    0.0252 H         1 <0>         0.1475
     24 H3          1.6822    2.7903    0.0004 H         1 <0>         0.1478
     25 H4         -0.8653   -0.6475    0.0072 H         1 <0>         0.2017
     26 H5          3.9364   -0.2706   -0.5512 H         1 <0>         0.0840
     27 H6          3.9777    1.5089   -0.5424 H         1 <0>         0.0973
     28 H7          3.7854    1.5012    1.9297 H         1 <0>         0.0866
     29 H8          3.7441   -0.2783    1.9210 H         1 <0>         0.0862
     30 H9          8.7600   -1.9656    1.3360 H         1 <0>         0.4179
     31 H10         9.7558   -0.6125    1.3390 H         1 <0>         0.4033
     32 H11         5.8759   -2.1263   -0.7781 H         1 <0>         0.1409
     33 H12         5.0713   -4.4506   -0.7844 H         1 <0>         0.1420
     34 H13         5.0943   -4.4865    3.4848 H         1 <0>         0.1453
@<TRIPOS>BOND
     1    1    5 2
     2    1    2 1
     3    1   23 1
     4    2    3 2
     5    2   24 1
     6    3    4 1
     7    3    6 1
     8    4    5 1
     9    5   25 1
    10    6    7 1
    11    6   26 1
    12    6   27 1
    13    7    8 1
    14    7   28 1
    15    7   29 1
    16    8   13 2
    17    8    9 1
    18    9   10 2
    19    9   15 1
    20   10   11 1
    21   10   14 1
    22   11   12 1
    23   11   13 1
    24   14   30 1
    25   14   31 1
    26   15   20 ar
    27   15   16 ar
    28   16   17 ar
    29   16   32 1
    30   17   18 ar
    31   17   33 1
    32   18   19 ar
    33   18   22 1
    34   19   20 ar
    35   19   34 1
    36   20   21 1
@<TRIPOS>MOLECULE
ZINC05447832
   40    41     0     0     0
SMALL
USER_CHARGES
1-(2-aminoethyl)-3-(4-chlorophenyl)-1-[3-(trifluoromethyl)phenyl]-urea
@<TRIPOS>ATOM
      1 C1          0.4241    1.6376    0.4675 C.ar      1 <0>        -0.1007
      2 C2         -0.0042    1.1024   -0.7338 C.ar      1 <0>        -0.0604
      3 C3         -0.4529    1.9336   -1.7434 C.ar      1 <0>        -0.1633
      4 C4         -0.4846    3.3011   -1.5513 C.ar      1 <0>        -0.0554
      5 C5         -0.0549    3.8416   -0.3467 C.ar      1 <0>         0.1325
      6 C6          0.4003    3.0043    0.6637 C.ar      1 <0>        -0.0893
      7 N1         -0.0798    5.2270   -0.1512 N.am      1 <0>        -0.5709
      8 C7          1.1599    5.9465    0.1516 C.3       1 <0>         0.0784
      9 C8          1.8180    6.4000   -1.1531 C.3       1 <0>        -0.0359
     10 C9         -1.2444    5.8994   -0.2414 C.2       1 <0>         0.7012
     11 O1         -2.2859    5.2927   -0.4008 O.2       1 <0>        -0.5199
     12 N2         -1.2544    7.2444   -0.1549 N.am      1 <0>        -0.6784
     13 C10        -2.4715    7.9358   -0.1402 C.ar      1 <0>         0.1487
     14 C11        -2.5664    9.1895   -0.7297 C.ar      1 <0>        -0.1300
     15 C12        -3.7698    9.8670   -0.7189 C.ar      1 <0>        -0.0883
     16 C13        -4.8776    9.3025   -0.1113 C.ar      1 <0>        -0.0417
     17 C14        -4.7843    8.0557    0.4818 C.ar      1 <0>        -0.0857
     18 C15        -3.5846    7.3715    0.4687 C.ar      1 <0>        -0.1029
     19 Cl1        -6.3871   10.1596   -0.0937 Cl        1 <0>        -0.0545
     20 C16        -0.9133    1.3465   -3.0528 C.3       1 <0>         0.5074
     21 F1         -0.7940   -0.0466   -3.0069 F         1 <0>        -0.1706
     22 F2         -2.2504    1.6930   -3.2747 F         1 <0>        -0.1694
     23 F3         -0.1229    1.8482   -4.0924 F         1 <0>        -0.1763
     24 H1          0.7778    0.9860    1.2527 H         1 <0>         0.1483
     25 H2          0.0160    0.0332   -0.8850 H         1 <0>         0.1495
     26 H3         -0.8394    3.9496   -2.3387 H         1 <0>         0.1361
     27 H4          0.7355    3.4216    1.6016 H         1 <0>         0.1377
     28 H5          0.9336    6.8176    0.7663 H         1 <0>         0.1056
     29 H6          1.8398    5.2875    0.6915 H         1 <0>         0.1174
     30 H7          2.0443    5.5288   -1.7678 H         1 <0>         0.1466
     31 H8          1.1381    7.0590   -1.6931 H         1 <0>         0.1349
     32 H9          3.6823    6.5533   -0.2933 H         1 <0>         0.4414
     33 H10         3.5150    7.4316   -1.6956 H         1 <0>         0.4476
     34 H11        -0.4182    7.7332   -0.1028 H         1 <0>         0.3987
     35 H12        -1.7009    9.6325   -1.1997 H         1 <0>         0.1327
     36 H13        -3.8454   10.8400   -1.1814 H         1 <0>         0.1426
     37 H14        -5.6504    7.6171    0.9550 H         1 <0>         0.1425
     38 H15        -3.5124    6.3983    0.9315 H         1 <0>         0.1440
     39 N3          3.0517    7.1408   -0.8362 N.4       1 <0>        -0.6415
     40 H16         2.8131    7.9741   -0.2858 H         1 <0>         0.4411
@<TRIPOS>BOND
     1    1    6 ar
     2    1    2 ar
     3    1   24 1
     4    2    3 ar
     5    2   25 1
     6    3    4 ar
     7    3   20 1
     8    4    5 ar
     9    4   26 1
    10    5    6 ar
    11    5    7 1
    12    6   27 1
    13    7    8 1
    14    7   10 am
    15    8    9 1
    16    8   28 1
    17    8   29 1
    18    9   30 1
    19    9   31 1
    20    9   39 1
    21   10   11 2
    22   10   12 am
    23   12   13 1
    24   12   34 1
    25   13   18 ar
    26   13   14 ar
    27   14   15 ar
    28   14   35 1
    29   15   16 ar
    30   15   36 1
    31   16   17 ar
    32   16   19 1
    33   17   18 ar
    34   17   37 1
    35   18   38 1
    36   20   21 1
    37   20   22 1
    38   20   23 1
    39   32   39 1
    40   33   39 1
    41   39   40 1
@<TRIPOS>MOLECULE
ZINC35488457
   35    37     0     0     0
SMALL
USER_CHARGES

@<TRIPOS>ATOM
      1 C1         -0.0178    1.4648    0.0101 C.3       1 <0>        -0.0505
      2 N1          0.0021   -0.0041    0.0020 N.4       1 <0>        -0.5077
      3 C2         -1.3761   -0.5125    0.0124 C.3       1 <0>         0.1391
      4 H1         -1.9129   -0.0898    0.8617 H         1 <0>         0.1563
      5 C3         -1.3563   -2.0150    0.1280 C.ar      1 <0>        -0.1233
      6 C4         -0.4109   -2.7489   -0.5637 C.ar      1 <0>        -0.1144
      7 C5         -0.3926   -4.1270   -0.4579 C.ar      1 <0>        -0.0709
      8 C6         -1.3201   -4.7715    0.3401 C.ar      1 <0>        -0.0809
      9 C7         -2.2657   -4.0370    1.0320 C.ar      1 <0>        -0.0724
     10 C8         -2.2801   -2.6586    0.9302 C.ar      1 <0>        -0.0793
     11 I1         -1.2931   -6.8602    0.5002 I         1 <0>        -0.0083
     12 C9         -2.0674   -0.1162   -1.2666 C.ar      1 <0>        -0.1310
     13 C10        -1.3804   -0.1715   -2.4672 C.ar      1 <0>        -0.1116
     14 C11        -2.0054    0.1897   -3.6446 C.ar      1 <0>        -0.0874
     15 C12        -3.3267    0.6096   -3.6239 C.ar      1 <0>         0.1200
     16 C13        -4.0197    0.6654   -2.4130 C.ar      1 <0>         0.1053
     17 C14        -3.3854    0.2954   -1.2368 C.ar      1 <0>        -0.0705
     18 N2         -5.3049    1.1158   -2.7051 N.am      1 <0>        -0.6392
     19 H2         -6.0173    1.2557   -2.0617 H         1 <0>         0.4428
     20 C15        -5.3899    1.3244   -4.0325 C.2       1 <0>         0.6852
     21 O1         -6.3804    1.7211   -4.6176 O.2       1 <0>        -0.5267
     22 N3         -4.2124    1.0278   -4.6142 N.am      1 <0>        -0.6389
     23 H3         -4.0147    1.0941   -5.5615 H         1 <0>         0.4439
     24 H4          1.0047    1.8421    0.0024 H         1 <0>         0.1305
     25 H5         -0.5450    1.8259   -0.8730 H         1 <0>         0.1269
     26 H6         -0.5280    1.8163    0.9069 H         1 <0>         0.1273
     27 H7          0.4744   -0.3295   -0.8281 H         1 <0>         0.4242
     28 H8          0.3132   -2.2456   -1.1872 H         1 <0>         0.1273
     29 H9          0.3458   -4.7003   -0.9987 H         1 <0>         0.1424
     30 H10        -2.9902   -4.5400    1.6553 H         1 <0>         0.1436
     31 H11        -3.0155   -2.0846    1.4743 H         1 <0>         0.1429
     32 H12        -0.3511   -0.4983   -2.4831 H         1 <0>         0.1286
     33 H13        -1.4661    0.1456   -4.5793 H         1 <0>         0.1464
     34 H14        -3.9195    0.3331   -0.2989 H         1 <0>         0.1440
     35 H15         0.4901   -0.3383    0.8195 H         1 <0>         0.4361
@<TRIPOS>BOND
     1    1    2 1
     2    1   24 1
     3    1   25 1
     4    1   26 1
     5    2    3 1
     6    2   27 1
     7    2   35 1
     8    3    4 1
     9    3    5 1
    10    3   12 1
    11    5   10 ar
    12    5    6 ar
    13    6    7 ar
    14    6   28 1
    15    7    8 ar
    16    7   29 1
    17    8    9 ar
    18    8   11 1
    19    9   10 ar
    20    9   30 1
    21   10   31 1
    22   12   17 ar
    23   12   13 ar
    24   13   14 ar
    25   13   32 1
    26   14   15 ar
    27   14   33 1
    28   15   22 1
    29   15   16 ar
    30   16   17 ar
    31   16   18 1
    32   17   34 1
    33   18   19 1
    34   18   20 am
    35   20   21 2
    36   20   22 am
    37   22   23 1
@<TRIPOS>MOLECULE
ZINC02502842
   44    47     0     0     0
SMALL
USER_CHARGES

@<TRIPOS>ATOM
      1 C1          0.1853    1.3702   -0.1738 C.ar      1 <0>         0.0396
      2 C2          1.4268    1.9926   -0.1927 C.ar      1 <0>        -0.1684
      3 C3          2.5705    1.2208   -0.1584 C.ar      1 <0>         0.1483
      4 N1          2.4973   -0.0960   -0.1081 N.ar      1 <0>        -0.5012
      5 C4          1.3332   -0.7263   -0.0890 C.ar      1 <0>         0.4512
      6 C5          0.1401   -0.0110   -0.1209 C.ar      1 <0>        -0.1954
      7 N2          1.3025   -2.1150   -0.0362 N.pl3     1 <0>        -0.6876
      8 C6          0.0180   -2.8190   -0.0149 C.3       1 <0>         0.2454
      9 H1         -0.7027   -2.2425    0.5651 H         1 <0>         0.1183
     10 C7         -0.4883   -2.9833   -1.4247 C.ar      1 <0>        -0.0998
     11 C8          0.4032   -2.9976   -2.4818 C.ar      1 <0>        -0.1091
     12 C9         -0.0580   -3.1481   -3.7762 C.ar      1 <0>        -0.0897
     13 C10        -1.4118   -3.2848   -4.0176 C.ar      1 <0>        -0.1196
     14 C11        -2.3085   -3.2714   -2.9600 C.ar      1 <0>         0.1330
     15 C12        -1.8429   -3.1253   -1.6600 C.ar      1 <0>        -0.0548
     16 Cl1        -2.9613   -3.1146   -0.3323 Cl        1 <0>        -0.0404
     17 O1         -3.6406   -3.4052   -3.1950 O.3       1 <0>        -0.4827
     18 C13         0.1993   -4.1760    0.6151 C.ar      1 <0>        -0.1365
     19 C14         0.2462   -5.3073   -0.1953 C.ar      1 <0>        -0.0920
     20 C15         0.4090   -6.5476    0.3428 C.ar      1 <0>        -0.0911
     21 C16         0.5318   -6.6924    1.7344 C.ar      1 <0>        -0.0792
     22 C17         0.7019   -7.9580    2.3271 C.ar      1 <0>        -0.0609
     23 C18         0.8147   -8.0228    3.6866 C.ar      1 <0>        -0.1552
     24 C19         0.7600   -6.8553    4.4451 C.ar      1 <0>         0.1379
     25 N3          0.6015   -5.6788    3.8892 N.ar      1 <0>        -0.4596
     26 C20         0.4849   -5.5462    2.5649 C.ar      1 <0>         0.0983
     27 C21         0.3206   -4.2768    1.9716 C.ar      1 <0>         0.1747
     28 O2          0.2780   -3.1614    2.7459 O.3       1 <0>        -0.4799
     29 H2         -0.7243    1.9520   -0.1954 H         1 <0>         0.1747
     30 H3          1.4965    3.0695   -0.2342 H         1 <0>         0.1816
     31 H4          3.5380    1.7006   -0.1732 H         1 <0>         0.2075
     32 H5         -0.8083   -0.5274   -0.1049 H         1 <0>         0.1728
     33 H6          2.1317   -2.6179   -0.0135 H         1 <0>         0.4212
     34 H7          1.4616   -2.8906   -2.2958 H         1 <0>         0.1286
     35 H8          0.6405   -3.1586   -4.5999 H         1 <0>         0.1409
     36 H9         -1.7713   -3.4016   -5.0293 H         1 <0>         0.1472
     37 H10        -3.9511   -4.3210   -3.1884 H         1 <0>         0.4025
     38 H11         0.1518   -5.1996   -1.2657 H         1 <0>         0.1356
     39 H12         0.4432   -7.4163   -0.2979 H         1 <0>         0.1407
     40 H13         0.7417   -8.8527    1.7236 H         1 <0>         0.1479
     41 H14         0.9458   -8.9780    4.1733 H         1 <0>         0.1476
     42 H15         0.8502   -6.9214    5.5193 H         1 <0>         0.1680
     43 H16        -0.6167   -2.8801    2.9814 H         1 <0>         0.3970
     44 H17         3.3166   -0.6148   -0.0848 H         1 <0>         0.4422
@<TRIPOS>BOND
     1    1    6 ar
     2    1    2 ar
     3    1   29 1
     4    2    3 ar
     5    2   30 1
     6    3    4 ar
     7    3   31 1
     8    4    5 ar
     9    4   44 1
    10    5    6 ar
    11    5    7 1
    12    6   32 1
    13    7    8 1
    14    7   33 1
    15    8    9 1
    16    8   10 1
    17    8   18 1
    18   10   15 ar
    19   10   11 ar
    20   11   12 ar
    21   11   34 1
    22   12   13 ar
    23   12   35 1
    24   13   14 ar
    25   13   36 1
    26   14   15 ar
    27   14   17 1
    28   15   16 1
    29   17   37 1
    30   18   27 ar
    31   18   19 ar
    32   19   20 ar
    33   19   38 1
    34   20   21 ar
    35   20   39 1
    36   21   26 ar
    37   21   22 ar
    38   22   23 ar
    39   22   40 1
    40   23   24 ar
    41   23   41 1
    42   24   25 ar
    43   24   42 1
    44   25   26 ar
    45   26   27 ar
    46   27   28 1
    47   28   43 1
@<TRIPOS>MOLECULE
ZINC41601568
   54    55     0     0     0
SMALL
USER_CHARGES

@<TRIPOS>ATOM
      1 C1          0.6686    0.9597    0.0411 C.3       1 <0>        -0.1350
      2 C2          0.5821   -0.5679    0.0445 C.3       1 <0>        -0.0646
      3 C3          1.2725   -1.1150    1.2955 C.3       1 <0>        -0.1468
      4 S1         -1.1596   -1.0749    0.0444 S.3       1 <0>        -0.2266
      5 C4         -1.0908   -2.8814   -0.1049 C.3       1 <0>        -0.0454
      6 C5         -2.4911   -3.4381   -0.1172 C.2       1 <0>         0.2333
      7 C6         -3.0362   -3.8853   -1.2856 C.2       1 <0>        -0.3070
      8 C7         -4.3444   -4.4009   -1.2716 C.2       1 <0>         0.5427
      9 O1         -4.8626   -4.8096   -2.2978 O.2       1 <0>        -0.5218
     10 N1         -5.0159   -4.4352   -0.1008 N.am      1 <0>        -0.6502
     11 H1         -5.9193   -4.7870   -0.0680 H         1 <0>         0.4145
     12 C8         -4.4210   -3.9752    1.0330 C.2       1 <0>         0.6363
     13 N2         -3.1923   -3.4980    1.0126 N.2       1 <0>        -0.5807
     14 N3         -5.1083   -4.0134    2.2163 N.pl3     1 <0>        -0.7030
     15 C9         -4.4782   -3.5201    3.4475 C.3       1 <0>         0.1582
     16 C10        -3.6722   -4.6520    4.0876 C.3       1 <0>        -0.1445
     17 C11        -3.0196   -4.1574    5.3780 C.3       1 <0>         0.0608
     18 N4         -3.9888   -3.5752    6.2944 N.4       1 <0>        -0.4922
     19 C12        -4.9501   -2.6298    5.7497 C.3       1 <0>         0.0648
     20 C13        -5.5648   -3.0891    4.4318 C.3       1 <0>        -0.1445
     21 C14        -6.1036   -2.4992    6.7729 C.3       1 <0>        -0.1809
     22 C15        -4.3410   -1.2351    5.5835 C.3       1 <0>        -0.1764
     23 C16        -2.3964   -5.3877    6.0772 C.3       1 <0>        -0.1798
     24 C17        -1.8787   -3.1924    5.0573 C.3       1 <0>        -0.1706
     25 H2          1.7152    1.2643    0.0412 H         1 <0>         0.0758
     26 H3          0.1768    1.3495   -0.8501 H         1 <0>         0.0676
     27 H4          0.1755    1.3535    0.9298 H         1 <0>         0.0640
     28 H5          1.0752   -0.9617   -0.8443 H         1 <0>         0.0907
     29 H6          0.7794   -0.7212    2.1842 H         1 <0>         0.0662
     30 H7          1.2108   -2.2033    1.2979 H         1 <0>         0.0542
     31 H8          2.3190   -0.8104    1.2955 H         1 <0>         0.0683
     32 H9         -0.5847   -3.1504   -1.0321 H         1 <0>         0.1041
     33 H10        -0.5427   -3.2953    0.7415 H         1 <0>         0.1031
     34 H11        -2.4724   -3.8436   -2.2058 H         1 <0>         0.1582
     35 H12        -6.0114   -4.3663    2.2414 H         1 <0>         0.4168
     36 H13        -3.8322   -2.6819    3.2027 H         1 <0>         0.1226
     37 H14        -4.3351   -5.4890    4.3121 H         1 <0>         0.0901
     38 H15        -2.8984   -4.9840    3.3932 H         1 <0>         0.1179
     39 H16        -4.5048   -4.3369    6.7419 H         1 <0>         0.4245
     40 H17        -6.1440   -2.2710    3.9957 H         1 <0>         0.1181
     41 H18        -6.2373   -3.9307    4.6186 H         1 <0>         0.0957
     42 H19        -5.7083   -2.1368    7.7218 H         1 <0>         0.0856
     43 H20        -6.8457   -1.7954    6.3959 H         1 <0>         0.1074
     44 H21        -6.5694   -3.4734    6.9216 H         1 <0>         0.0817
     45 H22        -3.5643   -1.2665    4.8195 H         1 <0>         0.0861
     46 H23        -5.1183   -0.5326    5.2827 H         1 <0>         0.1057
     47 H24        -3.9068   -0.9131    6.5300 H         1 <0>         0.0838
     48 H25        -1.6531   -5.8407    5.4212 H         1 <0>         0.1064
     49 H26        -1.9191   -5.0748    7.0058 H         1 <0>         0.0840
     50 H27        -3.1779   -6.1149    6.2975 H         1 <0>         0.0804
     51 H28        -2.2468   -2.3973    4.4090 H         1 <0>         0.0878
     52 H29        -1.4978   -2.7599    5.9825 H         1 <0>         0.0800
     53 H30        -1.0778   -3.7319    4.5518 H         1 <0>         0.1053
     54 H31        -3.4783   -3.1155    7.0524 H         1 <0>         0.4272
@<TRIPOS>BOND
     1    1    2 1
     2    1   25 1
     3    1   26 1
     4    1   27 1
     5    2    3 1
     6    2    4 1
     7    2   28 1
     8    3   29 1
     9    3   30 1
    10    3   31 1
    11    4    5 1
    12    5    6 1
    13    5   32 1
    14    5   33 1
    15    6   13 1
    16    6    7 2
    17    7    8 1
    18    7   34 1
    19    8    9 2
    20    8   10 am
    21   10   11 1
    22   10   12 1
    23   12   13 2
    24   12   14 1
    25   14   15 1
    26   14   35 1
    27   15   20 1
    28   15   16 1
    29   15   36 1
    30   16   17 1
    31   16   37 1
    32   16   38 1
    33   17   18 1
    34   17   23 1
    35   17   24 1
    36   18   19 1
    37   18   39 1
    38   18   54 1
    39   19   20 1
    40   19   21 1
    41   19   22 1
    42   20   40 1
    43   20   41 1
    44   21   42 1
    45   21   43 1
    46   21   44 1
    47   22   45 1
    48   22   46 1
    49   22   47 1
    50   23   48 1
    51   23   49 1
    52   23   50 1
    53   24   51 1
    54   24   52 1
    55   24   53 1
@<TRIPOS>MOLECULE
ZINC59170744
   46    48     0     0     0
SMALL
USER_CHARGES

@<TRIPOS>ATOM
      1 C1         -0.2963    0.4136    0.7952 C.3       1 <0>        -0.1559
      2 C2         -0.2432   -1.0695    0.4227 C.3       1 <0>        -0.0338
      3 C3          0.4505   -1.8514    1.5400 C.3       1 <0>        -0.1455
      4 C4         -1.6662   -1.5998    0.2366 C.3       1 <0>        -0.1452
      5 C5          0.5275   -1.2376   -0.8613 C.ar      1 <0>        -0.0496
      6 C6          0.7002   -2.4947   -1.3954 C.ar      1 <0>        -0.0360
      7 C7          1.4176   -2.6498   -2.5881 C.ar      1 <0>        -0.1514
      8 C8          1.6229   -3.9776   -3.1719 C.2       1 <0>         0.1308
      9 C9          2.5610   -4.0892   -4.1898 C.2       1 <0>        -0.2275
     10 C10         3.2672   -2.8559   -4.5920 C.2       1 <0>         0.5092
     11 N1          4.4690   -2.9058   -5.1246 N.pl3     1 <0>        -0.4369
     12 C11         5.0500   -1.7666   -5.6090 C.ar      1 <0>         0.0204
     13 C12         4.3090   -0.8803   -6.3947 C.ar      1 <0>        -0.0820
     14 C13         4.9016    0.2670   -6.8794 C.ar      1 <0>        -0.1001
     15 C14         6.2267    0.5409   -6.5896 C.ar      1 <0>        -0.0741
     16 C15         6.9666   -0.3324   -5.8120 C.ar      1 <0>        -0.0997
     17 C16         6.3857   -1.4807   -5.3157 C.ar      1 <0>        -0.0850
     18 O1          2.6378   -1.6696   -4.3956 O.3       1 <0>        -0.1951
     19 C17         1.9516   -1.5210   -3.2356 C.ar      1 <0>         0.0889
     20 C18         1.7671   -0.2596   -2.6785 C.ar      1 <0>         0.1296
     21 C19         1.0530   -0.1244   -1.4999 C.ar      1 <0>        -0.0635
     22 O2          2.2824    0.8386   -3.2929 O.3       1 <0>        -0.4739
     23 C20         2.8396   -5.3795   -4.8388 C.2       1 <0>         0.3895
     24 S1          3.8866   -5.4490   -6.1916 S.2       1 <0>        -0.5129
     25 N2          2.2706   -6.5072   -4.3685 N.pl3     1 <0>        -0.7352
     26 H1          0.7175    0.7914    0.9278 H         1 <0>         0.0642
     27 H2         -0.7905    0.9706   -0.0008 H         1 <0>         0.0639
     28 H3         -0.8537    0.5352    1.7239 H         1 <0>         0.0736
     29 H4         -0.1070   -1.7298    2.4688 H         1 <0>         0.0730
     30 H5          0.4883   -2.9079    1.2746 H         1 <0>         0.0592
     31 H6          1.4642   -1.4735    1.6726 H         1 <0>         0.0618
     32 H7         -2.1604   -1.0428   -0.5593 H         1 <0>         0.0622
     33 H8         -1.6284   -2.6564   -0.0287 H         1 <0>         0.0594
     34 H9         -2.2237   -1.4782    1.1654 H         1 <0>         0.0729
     35 H10         0.2845   -3.3577   -0.8964 H         1 <0>         0.1598
     36 H11         1.0669   -4.8358   -2.8242 H         1 <0>         0.1855
     37 H12         3.2750   -1.0932   -6.6223 H         1 <0>         0.1353
     38 H13         4.3301    0.9531   -7.4870 H         1 <0>         0.1454
     39 H14         6.6856    1.4404   -6.9724 H         1 <0>         0.1439
     40 H15         8.0004   -0.1124   -5.5901 H         1 <0>         0.1475
     41 H16         6.9631   -2.1591   -4.7052 H         1 <0>         0.1421
     42 H17         0.9079    0.8564   -1.0717 H         1 <0>         0.1697
     43 H18         1.6831    1.2500   -3.9306 H         1 <0>         0.4072
     44 H19         1.6773   -6.4678   -3.6020 H         1 <0>         0.4086
     45 H20         2.4542   -7.3580   -4.7965 H         1 <0>         0.4423
     46 H21         4.9430   -3.7506   -5.1738 H         1 <0>         0.4578
@<TRIPOS>BOND
     1    1    2 1
     2    1   26 1
     3    1   27 1
     4    1   28 1
     5    2    3 1
     6    2    4 1
     7    2    5 1
     8    3   29 1
     9    3   30 1
    10    3   31 1
    11    4   32 1
    12    4   33 1
    13    4   34 1
    14    5   21 ar
    15    5    6 ar
    16    6    7 ar
    17    6   35 1
    18    7   19 ar
    19    7    8 1
    20    8    9 2
    21    8   36 1
    22    9   10 1
    23    9   23 1
    24   10   11 2
    25   10   18 1
    26   11   12 1
    27   11   46 1
    28   12   17 ar
    29   12   13 ar
    30   13   14 ar
    31   13   37 1
    32   14   15 ar
    33   14   38 1
    34   15   16 ar
    35   15   39 1
    36   16   17 ar
    37   16   40 1
    38   17   41 1
    39   18   19 1
    40   19   20 ar
    41   20   21 ar
    42   20   22 1
    43   21   42 1
    44   22   43 1
    45   23   24 2
    46   23   25 1
    47   25   44 1
    48   25   45 1
@<TRIPOS>MOLECULE
ZINC03082214
   45    46     0     0     0
SMALL
USER_CHARGES
N'-(3,4-dichlorophenyl)-N-[(4-isopropylphenyl)methyleneamino]propanediamide
@<TRIPOS>ATOM
      1 C1          1.4280    1.6071    0.0078 C.3       1 <0>        -0.1461
      2 C2         -0.0101    1.0848    0.0104 C.3       1 <0>        -0.0609
      3 C3         -0.7417    1.5987   -1.2312 C.3       1 <0>        -0.1460
      4 C4         -0.7189    1.5709    1.2483 C.ar      1 <0>        -0.0571
      5 C5         -0.8490    2.9291    1.4786 C.ar      1 <0>        -0.1202
      6 C6         -1.5008    3.3812    2.6071 C.ar      1 <0>        -0.0738
      7 C7         -2.0211    2.4643    3.5235 C.ar      1 <0>        -0.0652
      8 C8         -1.8814    1.0947    3.2871 C.ar      1 <0>        -0.0856
      9 C9         -1.2314    0.6569    2.1520 C.ar      1 <0>        -0.1237
     10 C10        -2.7152    2.9401    4.7347 C.2       1 <0>         0.1132
     11 N1         -2.8433    4.2130    4.9513 N.2       1 <0>        -0.2275
     12 N2         -3.5026    4.6649    6.1019 N.am      1 <0>        -0.5872
     13 C11        -3.6357    5.9871    6.3269 C.2       1 <0>         0.5271
     14 O1         -3.1846    6.7858    5.5331 O.2       1 <0>        -0.4525
     15 C12        -4.3449    6.4732    7.5645 C.3       1 <0>        -0.1567
     16 C13        -4.3572    7.9801    7.5772 C.2       1 <0>         0.5125
     17 O2         -3.8409    8.5985    6.6705 O.2       1 <0>        -0.4638
     18 N3         -4.9420    8.6407    8.5961 N.am      1 <0>        -0.6742
     19 C14        -4.8696   10.0372    8.6581 C.ar      1 <0>         0.1637
     20 C15        -4.7770   10.6749    9.8884 C.ar      1 <0>        -0.1290
     21 C16        -4.6989   12.0524    9.9472 C.ar      1 <0>        -0.0785
     22 C17        -4.7257   12.7987    8.7823 C.ar      1 <0>        -0.0474
     23 C18        -4.8242   12.1662    7.5543 C.ar      1 <0>        -0.0114
     24 C19        -4.8959   10.7872    7.4902 C.ar      1 <0>        -0.1040
     25 Cl1        -4.8569   13.1055    6.0947 Cl        1 <0>        -0.0395
     26 Cl2        -4.6352   14.5306    8.8602 Cl        1 <0>        -0.0464
     27 H1          1.4186    2.6970    0.0168 H         1 <0>         0.0581
     28 H2          1.9491    1.2409    0.8924 H         1 <0>         0.0566
     29 H3          1.9406    1.2555   -0.8875 H         1 <0>         0.0598
     30 H4         -0.0008   -0.0052    0.0015 H         1 <0>         0.0792
     31 H5         -0.2290    1.2471   -2.1265 H         1 <0>         0.0598
     32 H6         -1.7662    1.2266   -1.2293 H         1 <0>         0.0566
     33 H7         -0.7510    2.6887   -1.2222 H         1 <0>         0.0581
     34 H8         -0.4427    3.6368    0.7713 H         1 <0>         0.1258
     35 H9         -1.6052    4.4415    2.7836 H         1 <0>         0.1347
     36 H10        -2.2809    0.3803    3.9916 H         1 <0>         0.1279
     37 H11        -1.1226   -0.4017    1.9679 H         1 <0>         0.1266
     38 H12        -3.1169    2.2290    5.4414 H         1 <0>         0.1207
     39 H13        -3.8634    4.0262    6.7366 H         1 <0>         0.3850
     40 H14        -5.3696    6.1015    7.5658 H         1 <0>         0.1322
     41 H15        -3.8243    6.1067    8.4492 H         1 <0>         0.1324
     42 H16        -5.4131    8.1483    9.2865 H         1 <0>         0.4154
     43 H17        -4.7613   10.0935   10.7985 H         1 <0>         0.1432
     44 H18        -4.6221   12.5481   10.9037 H         1 <0>         0.1485
     45 H19        -4.9727   10.2938    6.5325 H         1 <0>         0.1597
@<TRIPOS>BOND
     1    1    2 1
     2    1   27 1
     3    1   28 1
     4    1   29 1
     5    2    3 1
     6    2    4 1
     7    2   30 1
     8    3   31 1
     9    3   32 1
    10    3   33 1
    11    4    9 ar
    12    4    5 ar
    13    5    6 ar
    14    5   34 1
    15    6    7 ar
    16    6   35 1
    17    7    8 ar
    18    7   10 1
    19    8    9 ar
    20    8   36 1
    21    9   37 1
    22   10   11 2
    23   10   38 1
    24   11   12 1
    25   12   13 am
    26   12   39 1
    27   13   14 2
    28   13   15 1
    29   15   16 1
    30   15   40 1
    31   15   41 1
    32   16   17 2
    33   16   18 am
    34   18   19 1
    35   18   42 1
    36   19   24 ar
    37   19   20 ar
    38   20   21 ar
    39   20   43 1
    40   21   22 ar
    41   21   44 1
    42   22   23 ar
    43   22   26 1
    44   23   24 ar
    45   23   25 1
    46   24   45 1
@<TRIPOS>MOLECULE
ZINC06227380
   45    47     0     0     0
SMALL
USER_CHARGES
N-[3-[(4-chlorophenyl)sulfamoyl]phenyl]-3-phenyl-prop-2-enamide
@<TRIPOS>ATOM
      1 C1         -0.0842    4.0450    1.0540 C.ar      1 <0>        -0.1034
      2 C2          0.8963    3.3227    1.7117 C.ar      1 <0>        -0.1229
      3 C3          0.8598    1.9443    1.7105 C.ar      1 <0>        -0.0908
      4 C4         -0.1712    1.2763    1.0425 C.ar      1 <0>        -0.0856
      5 C5         -1.1552    2.0131    0.3759 C.ar      1 <0>        -0.0979
      6 C6         -1.1079    3.3912    0.3907 C.ar      1 <0>        -0.1229
      7 C7         -0.2172   -0.1950    1.0360 C.2       1 <0>         0.0008
      8 C8         -1.2129   -0.8355    0.3908 C.2       1 <0>        -0.2254
      9 C9         -1.2586   -2.2986    0.3843 C.2       1 <0>         0.5525
     10 O1         -0.3978   -2.9369    0.9613 O.2       1 <0>        -0.5247
     11 N1         -2.2540   -2.9388   -0.2606 N.am      1 <0>        -0.6705
     12 C10        -2.2391   -4.3334   -0.3600 C.ar      1 <0>         0.1327
     13 C11        -1.0310   -5.0109   -0.4664 C.ar      1 <0>        -0.0623
     14 C12        -1.0199   -6.3882   -0.5644 C.ar      1 <0>        -0.1176
     15 C13        -2.2097   -7.0932   -0.5564 C.ar      1 <0>        -0.0333
     16 C14        -3.4139   -6.4220   -0.4507 C.ar      1 <0>        -0.6571
     17 C15        -3.4318   -5.0447   -0.3469 C.ar      1 <0>        -0.0437
     18 S1         -4.9269   -7.3251   -0.4403 S.o2      1 <0>         2.6907
     19 O2         -5.9187   -6.4620   -0.9794 O.2       1 <0>        -0.9442
     20 O3         -4.6423   -8.6007   -0.9981 O.2       1 <0>        -0.9473
     21 N2         -5.3332   -7.5814    1.1444 N.pl3     1 <0>        -1.0623
     22 C16        -5.6528   -6.4985    1.9678 C.ar      1 <0>         0.1247
     23 C17        -4.7480   -6.0636    2.9278 C.ar      1 <0>        -0.0971
     24 C18        -5.0639   -4.9891    3.7359 C.ar      1 <0>        -0.1036
     25 C19        -6.2855   -4.3538    3.5983 C.ar      1 <0>        -0.0268
     26 C20        -7.1911   -4.7885    2.6466 C.ar      1 <0>        -0.1021
     27 C21        -6.8780   -5.8586    1.8316 C.ar      1 <0>        -0.0910
     28 Cl1        -6.6824   -3.0084    4.6212 Cl        1 <0>        -0.0615
     29 H1         -0.0505    5.1244    1.0588 H         1 <0>         0.1262
     30 H2          1.6921    3.8400    2.2269 H         1 <0>         0.1281
     31 H3          1.6254    1.3820    2.2245 H         1 <0>         0.1293
     32 H4         -1.9522    1.5043   -0.1460 H         1 <0>         0.1277
     33 H5         -1.8692    3.9617   -0.1206 H         1 <0>         0.1275
     34 H6          0.5466   -0.7614    1.5479 H         1 <0>         0.1382
     35 H7         -1.9768   -0.2691   -0.1212 H         1 <0>         0.1342
     36 H8         -2.9806   -2.4321   -0.6558 H         1 <0>         0.4156
     37 H9         -0.1015   -4.4610   -0.4720 H         1 <0>         0.1440
     38 H10        -0.0810   -6.9155   -0.6471 H         1 <0>         0.1395
     39 H11        -2.1982   -8.1705   -0.6325 H         1 <0>         0.1445
     40 H12        -4.3725   -4.5213   -0.2599 H         1 <0>         0.1410
     41 H13        -5.3495   -8.4833    1.5012 H         1 <0>         0.4288
     42 H14        -3.7966   -6.5624    3.0391 H         1 <0>         0.1392
     43 H15        -4.3587   -4.6473    4.4791 H         1 <0>         0.1398
     44 H16        -8.1435   -4.2904    2.5409 H         1 <0>         0.1428
     45 H17        -7.5850   -6.1972    1.0887 H         1 <0>         0.1463
@<TRIPOS>BOND
     1    1    6 ar
     2    1    2 ar
     3    1   29 1
     4    2    3 ar
     5    2   30 1
     6    3    4 ar
     7    3   31 1
     8    4    5 ar
     9    4    7 1
    10    5    6 ar
    11    5   32 1
    12    6   33 1
    13    7    8 2
    14    7   34 1
    15    8    9 1
    16    8   35 1
    17    9   10 2
    18    9   11 am
    19   11   12 1
    20   11   36 1
    21   12   17 ar
    22   12   13 ar
    23   13   14 ar
    24   13   37 1
    25   14   15 ar
    26   14   38 1
    27   15   16 ar
    28   15   39 1
    29   16   17 ar
    30   16   18 1
    31   17   40 1
    32   18   19 2
    33   18   20 2
    34   18   21 1
    35   21   22 1
    36   21   41 1
    37   22   27 ar
    38   22   23 ar
    39   23   24 ar
    40   23   42 1
    41   24   25 ar
    42   24   43 1
    43   25   26 ar
    44   25   28 1
    45   26   27 ar
    46   26   44 1
    47   27   45 1
@<TRIPOS>MOLECULE
ZINC06003269
   53    56     0     0     0
SMALL
USER_CHARGES
(5R)-8,8-dimethyl-2-sec-butylsulfanyl-5-(2-thienyl)-5,7,9,10-tetrahydro-3H-pyrimido[6,5-b]quinoline-4,6-dione
@<TRIPOS>ATOM
      1 C1         -5.4811    0.8196   -1.4517 C.3       1 <0>        -0.1629
      2 C2         -5.3172    1.4929   -0.0876 C.3       1 <0>        -0.1146
      3 C3         -3.9026    2.0632    0.0330 C.3       1 <0>        -0.0778
      4 H1         -3.8429    2.8291   -0.7543 H         1 <0>         0.1140
      5 C4         -3.7772    2.8435    1.3431 C.3       1 <0>        -0.1582
      6 S1         -2.7027    0.7081    0.0207 S.3       1 <0>         0.0301
      7 C5         -1.2008    1.6293    0.0166 C.2       1 <0>         0.4003
      8 N1         -0.0111    0.9658    0.0074 N.am      1 <0>        -0.6350
      9 H2          0.0053   -0.1341    0.0060 H         1 <0>         0.4503
     10 C6          1.1494    1.6551   -0.0000 C.2       1 <0>         0.5497
     11 O1          2.2206    1.0695   -0.0140 O.2       1 <0>        -0.5223
     12 C7          1.1015    3.0540    0.0082 C.2       1 <0>        -0.3128
     13 C8         -0.1330    3.6795    0.0207 C.2       1 <0>         0.4359
     14 N2         -1.2512    2.9458    0.0284 N.2       1 <0>        -0.5597
     15 N3         -0.2009    5.0588    0.0235 N.pl3     1 <0>        -0.6337
     16 C9          0.8718    5.8108   -0.3715 C.2       1 <0>         0.2382
     17 C10         2.1136    5.2834   -0.4071 C.2       1 <0>        -0.2806
     18 C11         2.3684    3.8563    0.0076 C.3       1 <0>         0.1440
     19 H3          3.0604    3.4004   -0.7159 H         1 <0>         0.1043
     20 C12         2.9610    3.8436    1.3931 C.2       1 <0>        -0.1012
     21 C13         4.1682    3.3813    1.8009 C.2       1 <0>        -0.1477
     22 C14         4.5059    3.4772    3.1378 C.2       1 <0>        -0.1466
     23 C15         3.6157    4.0210    4.0033 C.2       1 <0>        -0.1850
     24 S2          2.2522    4.4263    2.9245 S.3       1 <0>         0.0073
     25 C16         3.2142    6.0505   -0.8292 C.2       1 <0>         0.4043
     26 O2          4.3208    5.5485   -0.8409 O.2       1 <0>        -0.4640
     27 C17         3.0488    7.4801   -1.2658 C.3       1 <0>        -0.1603
     28 C18         1.6377    7.6693   -1.8319 C.3       1 <0>        -0.0504
     29 C19         0.6275    7.2484   -0.7622 C.3       1 <0>        -0.0901
     30 C20         1.4615    6.7991   -3.0779 C.3       1 <0>        -0.1537
     31 C21         1.4205    9.1395   -2.1955 C.3       1 <0>        -0.1432
     32 H4         -6.4981    0.4096   -1.5384 H         1 <0>         0.0632
     33 H5         -4.7479    0.0054   -1.5491 H         1 <0>         0.0618
     34 H6         -5.3150    1.5598   -2.2483 H         1 <0>         0.0601
     35 H7         -6.0504    2.3071    0.0098 H         1 <0>         0.0872
     36 H8         -5.4833    0.7527    0.7090 H         1 <0>         0.0725
     37 H9         -2.7601    3.2535    1.4297 H         1 <0>         0.0819
     38 H10        -3.9749    2.1709    2.1908 H         1 <0>         0.0605
     39 H11        -4.5064    3.6670    1.3506 H         1 <0>         0.0683
     40 H12        -1.1238    5.5634    0.3454 H         1 <0>         0.4471
     41 H13         4.8570    2.9472    1.0914 H         1 <0>         0.1322
     42 H14         5.4633    3.1207    3.4882 H         1 <0>         0.1311
     43 H15         3.7073    4.1700    5.0691 H         1 <0>         0.1818
     44 H16         3.1944    8.1463   -0.4026 H         1 <0>         0.1022
     45 H17         3.7936    7.7155   -2.0403 H         1 <0>         0.0992
     46 H18        -0.3921    7.3515   -1.1620 H         1 <0>         0.0945
     47 H19         0.7416    7.8931    0.1217 H         1 <0>         0.1036
     48 H20         0.4476    6.9375   -3.4814 H         1 <0>         0.0612
     49 H21         1.6087    5.7422   -2.8108 H         1 <0>         0.0589
     50 H22         2.2015    7.0919   -3.8373 H         1 <0>         0.0646
     51 H23         0.4066    9.2709   -2.6014 H         1 <0>         0.0622
     52 H24         2.1601    9.4435   -2.9509 H         1 <0>         0.0654
     53 H25         1.5387    9.7611   -1.2957 H         1 <0>         0.0619
@<TRIPOS>BOND
     1    1    2 1
     2    1   32 1
     3    1   33 1
     4    1   34 1
     5    2    3 1
     6    2   35 1
     7    2   36 1
     8    3    4 1
     9    3    5 1
    10    3    6 1
    11    5   37 1
    12    5   38 1
    13    5   39 1
    14    6    7 1
    15    7   14 2
    16    7    8 1
    17    8    9 1
    18    8   10 am
    19   10   11 2
    20   10   12 1
    21   12   18 1
    22   12   13 2
    23   13   14 1
    24   13   15 1
    25   15   16 1
    26   15   40 1
    27   16   29 1
    28   16   17 2
    29   17   18 1
    30   17   25 1
    31   18   19 1
    32   18   20 1
    33   20   24 1
    34   20   21 2
    35   21   22 1
    36   21   41 1
    37   22   23 2
    38   22   42 1
    39   23   24 1
    40   23   43 1
    41   25   26 2
    42   25   27 1
    43   27   28 1
    44   27   44 1
    45   27   45 1
    46   28   29 1
    47   28   30 1
    48   28   31 1
    49   29   46 1
    50   29   47 1
    51   30   48 1
    52   30   49 1
    53   30   50 1
    54   31   51 1
    55   31   52 1
    56   31   53 1
@<TRIPOS>MOLECULE
ZINC23449155
   46    49     0     0     0
SMALL
USER_CHARGES

@<TRIPOS>ATOM
      1 C1         -0.0166    1.3752    0.0096 C.ar      1 <0>        -0.1126
      2 C2          1.1701    2.0869    0.0021 C.ar      1 <0>        -0.0880
      3 C3          2.3826    1.4218   -0.0130 C.ar      1 <0>        -0.1062
      4 C4          2.4159    0.0410   -0.0212 C.ar      1 <0>        -0.0230
      5 C5          1.2216   -0.6825   -0.0136 C.ar      1 <0>        -0.0046
      6 C6          0.0021   -0.0041    0.0020 C.ar      1 <0>        -0.0591
      7 C7          1.2488   -2.1607   -0.0228 C.2       1 <0>         0.1384
      8 N1          0.2401   -3.0208   -0.0234 N.2       1 <0>        -0.4773
      9 C8          0.4494   -4.3164   -0.0329 C.2       1 <0>         0.0619
     10 C9          1.7209   -4.7972   -0.0424 C.2       1 <0>        -0.1962
     11 S1          2.6512   -3.2697   -0.0439 S.3       1 <0>         0.0797
     12 C10        -0.7179   -5.2696   -0.0328 C.3       1 <0>        -0.0381
     13 S2         -1.1950   -5.6414   -1.7430 S.3       1 <0>         0.0370
     14 C11        -2.5528   -6.7518   -1.5749 C.2       1 <0>         0.1830
     15 N2         -3.0746   -7.1821   -0.4497 N.2       1 <0>        -0.2905
     16 N3         -4.0513   -7.9797   -0.6983 N.2       1 <0>        -0.2628
     17 C12        -4.2099   -8.1050   -1.9855 C.2       1 <0>         0.1583
     18 N4         -3.2650   -7.3229   -2.5902 N.pl3     1 <0>        -0.3073
     19 N5         -3.0717   -7.1512   -3.9315 N.3       1 <0>        -0.5841
     20 C13        -5.2468   -8.9503   -2.6793 C.3       1 <0>         0.0056
     21 C14        -6.6444   -8.4802   -2.2711 C.3       1 <0>        -0.1091
     22 C15        -7.6972   -9.3383   -2.9756 C.3       1 <0>        -0.1181
     23 C16        -7.5139  -10.8030   -2.5729 C.3       1 <0>        -0.1236
     24 C17        -6.1163  -11.2731   -2.9812 C.3       1 <0>        -0.1180
     25 C18        -5.0636  -10.4149   -2.2767 C.3       1 <0>        -0.1083
     26 Cl1         3.9384   -0.7927   -0.0413 Cl        1 <0>        -0.0353
     27 H1         -0.9599    1.9010    0.0259 H         1 <0>         0.1399
     28 H2          1.1494    3.1667    0.0077 H         1 <0>         0.1403
     29 H3          3.3052    1.9832   -0.0188 H         1 <0>         0.1434
     30 H4         -0.9251   -0.5578    0.0082 H         1 <0>         0.1467
     31 H5          2.0720   -5.8185   -0.0509 H         1 <0>         0.2015
     32 H6         -0.4338   -6.1919    0.4739 H         1 <0>         0.1112
     33 H7         -1.5596   -4.8132    0.4881 H         1 <0>         0.1126
     34 H8         -2.4251   -7.8357   -4.2942 H         1 <0>         0.3670
     35 H9         -3.9484   -7.1822   -4.4300 H         1 <0>         0.3766
     36 H10        -5.1317   -8.8531   -3.7589 H         1 <0>         0.0786
     37 H11        -6.7596   -8.5773   -1.1916 H         1 <0>         0.0798
     38 H12        -6.7750   -7.4367   -2.5580 H         1 <0>         0.0636
     39 H13        -8.6928   -9.0034   -2.6848 H         1 <0>         0.0696
     40 H14        -7.5820   -9.2411   -4.0551 H         1 <0>         0.0625
     41 H15        -7.6290  -10.9001   -1.4934 H         1 <0>         0.0668
     42 H16        -8.2639  -11.4143   -3.0748 H         1 <0>         0.0654
     43 H17        -5.9857  -12.3165   -2.6943 H         1 <0>         0.0693
     44 H18        -6.0012  -11.1759   -4.0607 H         1 <0>         0.0622
     45 H19        -4.0679  -10.7498   -2.5675 H         1 <0>         0.0614
     46 H20        -5.1787  -10.5121   -1.1972 H         1 <0>         0.0800
@<TRIPOS>BOND
     1    1    6 ar
     2    1    2 ar
     3    1   27 1
     4    2    3 ar
     5    2   28 1
     6    3    4 ar
     7    3   29 1
     8    4    5 ar
     9    4   26 1
    10    5    6 ar
    11    5    7 1
    12    6   30 1
    13    7   11 1
    14    7    8 2
    15    8    9 1
    16    9   10 2
    17    9   12 1
    18   10   11 1
    19   10   31 1
    20   12   13 1
    21   12   32 1
    22   12   33 1
    23   13   14 1
    24   14   18 1
    25   14   15 2
    26   15   16 1
    27   16   17 2
    28   17   18 1
    29   17   20 1
    30   18   19 1
    31   19   34 1
    32   19   35 1
    33   20   25 1
    34   20   21 1
    35   20   36 1
    36   21   22 1
    37   21   37 1
    38   21   38 1
    39   22   23 1
    40   22   39 1
    41   22   40 1
    42   23   24 1
    43   23   41 1
    44   23   42 1
    45   24   25 1
    46   24   43 1
    47   24   44 1
    48   25   45 1
    49   25   46 1
@<TRIPOS>MOLECULE
ZINC44881909
   42    44     0     0     0
SMALL
USER_CHARGES

@<TRIPOS>ATOM
      1 C1         -0.0173    1.4248    0.0099 C.3       1 <0>         0.0296
      2 O1          0.0021   -0.0041    0.0020 O.3       1 <0>        -0.3380
      3 C2         -1.1902   -0.6321    0.0100 C.2       1 <0>         0.5048
      4 O2         -2.2179    0.0156    0.0233 O.2       1 <0>        -0.4679
      5 C3         -1.2474   -2.1062    0.0027 C.ar      1 <0>         0.0379
      6 C4         -1.2690   -2.8168    1.2192 C.ar      1 <0>        -0.0713
      7 C5         -1.3238   -4.2169    1.2114 C.ar      1 <0>         0.3236
      8 C6         -1.3568   -4.9114   -0.0076 C.ar      1 <0>        -0.0759
      9 C7         -1.3353   -4.2036   -1.2207 C.ar      1 <0>         0.0997
     10 C8         -1.2862   -2.8002   -1.2144 C.ar      1 <0>        -0.0554
     11 C9         -1.2697   -2.0544   -2.4926 C.ar      1 <0>        -0.0573
     12 C10        -2.3767   -2.0946   -3.3412 C.ar      1 <0>        -0.0727
     13 C11        -2.3557   -1.3975   -4.5313 C.ar      1 <0>        -0.1073
     14 C12        -1.2388   -0.6592   -4.8847 C.ar      1 <0>        -0.0234
     15 C13        -0.1371   -0.6160   -4.0468 C.ar      1 <0>        -0.1085
     16 C14        -0.1495   -1.3037   -2.8511 C.ar      1 <0>        -0.0892
     17 Cl1        -1.2192    0.2151   -6.3844 Cl        1 <0>        -0.0645
     18 C15        -1.3701   -4.9365   -2.5051 C.ar      1 <0>        -0.0715
     19 C16        -0.2750   -4.8880   -3.3693 C.ar      1 <0>        -0.0701
     20 C17        -0.3131   -5.5737   -4.5653 C.ar      1 <0>        -0.1069
     21 C18        -1.4348   -6.3094   -4.9095 C.ar      1 <0>        -0.0196
     22 C19        -2.5243   -6.3613   -4.0561 C.ar      1 <0>        -0.1069
     23 C20        -2.4958   -5.6839   -2.8550 C.ar      1 <0>        -0.0814
     24 Cl2        -1.4756   -7.1695   -6.4169 Cl        1 <0>        -0.0615
     25 C21        -1.4119   -6.3423   -0.0148 C.1       1 <0>         0.2466
     26 N1         -1.4556   -7.4775   -0.0205 N.1       1 <0>        -0.3862
     27 N2         -1.3450   -4.9151    2.4062 N.pl3     1 <0>        -0.8396
     28 C22        -1.2344   -2.1083    2.4631 C.1       1 <0>         0.2386
     29 N3         -1.2070   -1.5462    3.4500 N.1       1 <0>        -0.3813
     30 H1          1.0053    1.8021    0.0021 H         1 <0>         0.1103
     31 H2         -0.5445    1.7859   -0.8732 H         1 <0>         0.0674
     32 H3         -0.5275    1.7763    0.9067 H         1 <0>         0.0640
     33 H4         -3.2480   -2.6707   -3.0668 H         1 <0>         0.1356
     34 H5         -3.2119   -1.4279   -5.1889 H         1 <0>         0.1377
     35 H6          0.7314   -0.0389   -4.3276 H         1 <0>         0.1384
     36 H7          0.7082   -1.2652   -2.1959 H         1 <0>         0.1411
     37 H8          0.6001   -4.3143   -3.1021 H         1 <0>         0.1391
     38 H9          0.5335   -5.5367   -5.2350 H         1 <0>         0.1399
     39 H10        -3.3965   -6.9363   -4.3300 H         1 <0>         0.1394
     40 H11        -3.3444   -5.7284   -2.1884 H         1 <0>         0.1362
     41 H12        -1.3219   -4.4352    3.2489 H         1 <0>         0.4128
     42 H13        -1.3830   -5.8844    2.4010 H         1 <0>         0.4134
@<TRIPOS>BOND
     1    1    2 1
     2    1   30 1
     3    1   31 1
     4    1   32 1
     5    2    3 1
     6    3    4 2
     7    3    5 1
     8    5   10 ar
     9    5    6 ar
    10    6    7 ar
    11    6   28 1
    12    7    8 ar
    13    7   27 1
    14    8    9 ar
    15    8   25 1
    16    9   10 ar
    17    9   18 1
    18   10   11 1
    19   11   16 ar
    20   11   12 ar
    21   12   13 ar
    22   12   33 1
    23   13   14 ar
    24   13   34 1
    25   14   15 ar
    26   14   17 1
    27   15   16 ar
    28   15   35 1
    29   16   36 1
    30   18   23 ar
    31   18   19 ar
    32   19   20 ar
    33   19   37 1
    34   20   21 ar
    35   20   38 1
    36   21   22 ar
    37   21   24 1
    38   22   23 ar
    39   22   39 1
    40   23   40 1
    41   25   26 3
    42   27   41 1
    43   27   42 1
    44   28   29 3
@<TRIPOS>MOLECULE
ZINC00930006
   48    51     0     0     0
SMALL
USER_CHARGES
N-(4-acetylaminophenyl)-2-(methylBLAHyl)sulfanyl-acetamide
@<TRIPOS>ATOM
      1 C1          6.5407   -1.8705    3.9728 C.3       1 <0>        -0.1178
      2 C2          5.2604   -1.7433    3.1881 C.ar      1 <0>        -0.1125
      3 C3          4.9190   -0.5488    2.6276 C.ar      1 <0>        -0.0401
      4 C4          3.7135   -0.4707    1.9023 C.ar      1 <0>        -0.0916
      5 C5          3.3030    0.7300    1.3017 C.ar      1 <0>        -0.0827
      6 C6          2.1294    0.7745    0.6063 C.ar      1 <0>         0.0415
      7 C7          1.3258   -0.3715    0.4852 C.ar      1 <0>         0.0672
      8 C8          1.7029   -1.5518    1.0600 C.ar      1 <0>        -0.0922
      9 C9          2.9048   -1.6278    1.7819 C.ar      1 <0>         0.1563
     10 N1          3.2917   -2.7743    2.3540 N.ar      1 <0>        -0.4808
     11 C10         4.4184   -2.8532    3.0337 C.ar      1 <0>         0.1342
     12 S1          4.8762   -4.3892    3.7656 S.3       1 <0>         0.0426
     13 C11         3.4711   -5.4107    3.2573 C.3       1 <0>        -0.1515
     14 C12         3.6505   -6.8105    3.7858 C.2       1 <0>         0.5293
     15 O1          4.6318   -7.0900    4.4417 O.2       1 <0>        -0.5008
     16 N2          2.7206   -7.7519    3.5298 N.am      1 <0>        -0.6669
     17 C13         2.9371   -9.0770    3.9287 C.ar      1 <0>         0.1308
     18 C14         4.2228   -9.6019    3.9256 C.ar      1 <0>        -0.1002
     19 C15         4.4366  -10.9066    4.3224 C.ar      1 <0>        -0.0990
     20 C16         3.3649  -11.6972    4.7161 C.ar      1 <0>         0.1284
     21 C17         2.0786  -11.1738    4.7146 C.ar      1 <0>        -0.1241
     22 C18         1.8653   -9.8677    4.3219 C.ar      1 <0>        -0.1240
     23 N3          3.5814  -13.0224    5.1150 N.am      1 <0>        -0.6760
     24 C19         4.7003  -13.3480    5.7921 C.2       1 <0>         0.5086
     25 O2          5.5582  -12.5123    5.9835 O.2       1 <0>        -0.5227
     26 C20         4.8855  -14.7506    6.3113 C.3       1 <0>        -0.1735
     27 O3          0.2231   -0.0482   -0.2526 O.3       1 <0>        -0.3029
     28 C21         0.1513    1.3891   -0.2298 C.3       1 <0>         0.2105
     29 O4          1.5194    1.8015   -0.0571 O.3       1 <0>        -0.3035
     30 H1          7.3499   -2.1615    3.3031 H         1 <0>         0.0828
     31 H2          6.7792   -0.9133    4.4365 H         1 <0>         0.0782
     32 H3          6.4189   -2.6287    4.7464 H         1 <0>         0.0780
     33 H4          5.5563    0.3163    2.7370 H         1 <0>         0.1489
     34 H5          3.9146    1.6158    1.3889 H         1 <0>         0.1456
     35 H6          1.0767   -2.4260    0.9595 H         1 <0>         0.1480
     36 H7          2.5501   -4.9866    3.6572 H         1 <0>         0.1265
     37 H8          3.4163   -5.4375    2.1690 H         1 <0>         0.1279
     38 H9          1.9014   -7.5117    3.0692 H         1 <0>         0.4139
     39 H10         5.0558   -8.9882    3.6159 H         1 <0>         0.1382
     40 H11         5.4371  -11.3136    4.3238 H         1 <0>         0.1424
     41 H12         1.2452  -11.7885    5.0211 H         1 <0>         0.1309
     42 H13         0.8649   -9.4607    4.3208 H         1 <0>         0.1311
     43 H14         2.9261  -13.7056    4.9039 H         1 <0>         0.4119
     44 H15         4.8689  -15.4520    5.4771 H         1 <0>         0.0919
     45 H16         5.8424  -14.8233    6.8282 H         1 <0>         0.0973
     46 H17         4.0791  -14.9910    7.0041 H         1 <0>         0.0920
     47 H18        -0.2460    1.7671   -1.1719 H         1 <0>         0.1375
     48 H19        -0.4590    1.7283    0.6072 H         1 <0>         0.0906
@<TRIPOS>BOND
     1    1    2 1
     2    1   30 1
     3    1   31 1
     4    1   32 1
     5    2   11 ar
     6    2    3 ar
     7    3    4 ar
     8    3   33 1
     9    4    9 ar
    10    4    5 ar
    11    5    6 ar
    12    5   34 1
    13    6   29 1
    14    6    7 ar
    15    7    8 ar
    16    7   27 1
    17    8    9 ar
    18    8   35 1
    19    9   10 ar
    20   10   11 ar
    21   11   12 1
    22   12   13 1
    23   13   14 1
    24   13   36 1
    25   13   37 1
    26   14   15 2
    27   14   16 am
    28   16   17 1
    29   16   38 1
    30   17   22 ar
    31   17   18 ar
    32   18   19 ar
    33   18   39 1
    34   19   20 ar
    35   19   40 1
    36   20   21 ar
    37   20   23 1
    38   21   22 ar
    39   21   41 1
    40   22   42 1
    41   23   24 am
    42   23   43 1
    43   24   25 2
    44   24   26 1
    45   26   44 1
    46   26   45 1
    47   26   46 1
    48   27   28 1
    49   28   29 1
    50   28   47 1
    51   28   48 1
@<TRIPOS>MOLECULE
ZINC05619848
   49    51     0     0     0
SMALL
USER_CHARGES
(2S)-N-(methylcarbamoyl)-2-[[5-methyl-4-(o-tolyl)-1,2,4-triazol-3-yl]sulfanyl]-2-phenyl-acetamide
@<TRIPOS>ATOM
      1 C1         -2.5514    3.8822    0.0460 C.3       1 <0>        -0.1215
      2 C2         -1.2387    3.1421    0.0304 C.ar      1 <0>        -0.0545
      3 C3         -0.0491    3.8443    0.0233 C.ar      1 <0>        -0.1114
      4 C4          1.1555    3.1660    0.0081 C.ar      1 <0>        -0.0908
      5 C5          1.1735    1.7832    0.0004 C.ar      1 <0>        -0.1144
      6 C6         -0.0126    1.0758    0.0080 C.ar      1 <0>        -0.0897
      7 C7         -1.2238    1.7543    0.0174 C.ar      1 <0>         0.0900
      8 N1         -2.4300    1.0386    0.0187 N.pl3     1 <0>        -0.4134
      9 C8         -3.1369    0.6099    1.1108 C.2       1 <0>         0.1963
     10 N2         -4.1928   -0.0128    0.6687 N.2       1 <0>        -0.2798
     11 N3         -4.2036   -0.0083   -0.6163 N.2       1 <0>        -0.2772
     12 C9         -3.1489    0.6283   -1.0704 C.2       1 <0>         0.1492
     13 S1         -2.7359    0.8995   -2.7617 S.3       1 <0>         0.0944
     14 C10        -4.1368    0.0797   -3.5626 C.3       1 <0>        -0.0681
     15 H1         -4.2089   -0.9478   -3.2060 H         1 <0>         0.1352
     16 C11        -5.4080    0.8174   -3.2296 C.ar      1 <0>        -0.0967
     17 C12        -5.5478    2.1471   -3.5808 C.ar      1 <0>        -0.0945
     18 C13        -6.7155    2.8225   -3.2792 C.ar      1 <0>        -0.1228
     19 C14        -7.7399    2.1709   -2.6182 C.ar      1 <0>        -0.1052
     20 C15        -7.5981    0.8427   -2.2623 C.ar      1 <0>        -0.1206
     21 C16        -6.4320    0.1660   -2.5678 C.ar      1 <0>        -0.0660
     22 C17        -3.9324    0.0799   -5.0557 C.2       1 <0>         0.5491
     23 O1         -3.1638    0.8690   -5.5621 O.2       1 <0>        -0.4451
     24 N4         -4.6039   -0.7970   -5.8280 N.am      1 <0>        -0.6816
     25 C18        -4.4210   -0.7968   -7.1633 C.2       1 <0>         0.6941
     26 O2         -3.6506   -0.0057   -7.6710 O.2       1 <0>        -0.5245
     27 N5         -5.0926   -1.6737   -7.9356 N.am      1 <0>        -0.7394
     28 C19        -4.8938   -1.6735   -9.3870 C.3       1 <0>         0.1021
     29 C20        -2.7632    0.8199    2.5556 C.3       1 <0>        -0.0680
     30 H2         -2.8771    4.0659   -0.9778 H         1 <0>         0.0810
     31 H3         -3.3003    3.2827    0.5635 H         1 <0>         0.0629
     32 H4         -2.4261    4.8332    0.5636 H         1 <0>         0.0777
     33 H5         -0.0601    4.9243    0.0292 H         1 <0>         0.1362
     34 H6          2.0843    3.7171    0.0018 H         1 <0>         0.1345
     35 H7          2.1160    1.2560   -0.0118 H         1 <0>         0.1362
     36 H8          0.0021   -0.0041    0.0020 H         1 <0>         0.1303
     37 H9         -4.7460    2.6572   -4.0939 H         1 <0>         0.1264
     38 H10        -6.8265    3.8601   -3.5576 H         1 <0>         0.1243
     39 H11        -8.6512    2.6994   -2.3802 H         1 <0>         0.1230
     40 H12        -8.3984    0.3336   -1.7459 H         1 <0>         0.1255
     41 H13        -6.3212   -0.8716   -2.2897 H         1 <0>         0.1281
     42 H14        -5.2188   -1.4283   -5.4228 H         1 <0>         0.4131
     43 H15        -5.7075   -2.3051   -7.5304 H         1 <0>         0.4016
     44 H16        -3.8460   -1.8745   -9.6103 H         1 <0>         0.0633
     45 H17        -5.5163   -2.4457   -9.8391 H         1 <0>         0.0821
     46 H18        -5.1712   -0.7001   -9.7916 H         1 <0>         0.0632
     47 H19        -3.1977    1.7542    2.9112 H         1 <0>         0.0876
     48 H20        -3.1436   -0.0084    3.1533 H         1 <0>         0.0985
     49 H21        -1.6780    0.8658    2.6472 H         1 <0>         0.0790
@<TRIPOS>BOND
     1    1    2 1
     2    1   30 1
     3    1   31 1
     4    1   32 1
     5    2    7 ar
     6    2    3 ar
     7    3    4 ar
     8    3   33 1
     9    4    5 ar
    10    4   34 1
    11    5    6 ar
    12    5   35 1
    13    6    7 ar
    14    6   36 1
    15    7    8 1
    16    8   12 1
    17    8    9 1
    18    9   10 2
    19    9   29 1
    20   10   11 1
    21   11   12 2
    22   12   13 1
    23   13   14 1
    24   14   15 1
    25   14   16 1
    26   14   22 1
    27   16   21 ar
    28   16   17 ar
    29   17   18 ar
    30   17   37 1
    31   18   19 ar
    32   18   38 1
    33   19   20 ar
    34   19   39 1
    35   20   21 ar
    36   20   40 1
    37   21   41 1
    38   22   23 2
    39   22   24 am
    40   24   25 am
    41   24   42 1
    42   25   26 2
    43   25   27 am
    44   27   28 1
    45   27   43 1
    46   28   44 1
    47   28   45 1
    48   28   46 1
    49   29   47 1
    50   29   48 1
    51   29   49 1
@<TRIPOS>MOLECULE
ZINC26560974
   48    50     0     0     0
SMALL
USER_CHARGES
(2R)-N-(allylcarbamoyl)-2-(3-methyl-4-oxo-benzo[g]quinazolin-2-yl)sulfanyl-propanamide
@<TRIPOS>ATOM
      1 C1         -2.3667   -2.8752   -1.3002 C.3       1 <0>        -0.1520
      2 C2         -3.1136   -2.6457    0.0153 C.3       1 <0>        -0.1129
      3 H1         -2.4017   -2.9371    0.8017 H         1 <0>         0.1329
      4 C3         -4.2268   -3.6534    0.1433 C.2       1 <0>         0.5354
      5 O1         -5.3500   -3.3640   -0.2096 O.2       1 <0>        -0.4545
      6 N1         -3.9737   -4.8763    0.6501 N.am      1 <0>        -0.6982
      7 C4         -4.9693   -5.7776    0.7647 C.2       1 <0>         0.6968
      8 O2         -6.0953   -5.4875    0.4109 O.2       1 <0>        -0.5325
      9 N2         -4.7162   -7.0005    1.2715 N.am      1 <0>        -0.7441
     10 C5         -5.7984   -7.9801    1.3959 C.3       1 <0>         0.1651
     11 C6         -5.2554   -9.2562    1.9859 C.2       1 <0>        -0.1836
     12 C7         -5.7992   -9.7623    3.0648 C.2       1 <0>        -0.1626
     13 S1         -3.8081   -0.9743    0.0310 S.3       1 <0>         0.0952
     14 C8         -2.3231   -0.0259    0.0232 C.2       1 <0>         0.3585
     15 N3         -1.1830   -0.6677    0.0093 N.2       1 <0>        -0.5259
     16 C9          0.0021   -0.0041    0.0020 C.ar      1 <0>         0.1490
     17 C10         1.2094   -0.6832   -0.0131 C.ar      1 <0>        -0.0990
     18 C11         2.4079    0.0396   -0.0207 C.ar      1 <0>        -0.0102
     19 C12         3.6540   -0.6175   -0.0365 C.ar      1 <0>        -0.1168
     20 C13         4.7986    0.1157   -0.0435 C.ar      1 <0>        -0.0937
     21 C14         4.7753    1.5088   -0.0363 C.ar      1 <0>        -0.1240
     22 C15         3.6064    2.2028   -0.0210 C.ar      1 <0>        -0.0861
     23 C16         2.3837    1.5037   -0.0126 C.ar      1 <0>        -0.0804
     24 C17         1.1597    2.1840    0.0027 C.ar      1 <0>        -0.0025
     25 C18        -0.0178    1.4612    0.0101 C.ar      1 <0>        -0.1967
     26 C19        -1.3330    2.1256    0.0200 C.2       1 <0>         0.5603
     27 O3         -1.4280    3.3387    0.0271 O.2       1 <0>        -0.4998
     28 N4         -2.4303    1.3352    0.0315 N.am      1 <0>        -0.5352
     29 C20        -3.7594    1.9511    0.0474 C.3       1 <0>         0.0420
     30 H2         -1.5541   -2.1397   -1.3936 H         1 <0>         0.1011
     31 H3         -3.0643   -2.7599   -2.1428 H         1 <0>         0.0694
     32 H4         -1.9447   -3.8910   -1.3098 H         1 <0>         0.0726
     33 H5         -2.9546   -5.1389    0.9702 H         1 <0>         0.4354
     34 H6         -3.6971   -7.2631    1.5917 H         1 <0>         0.4199
     35 H7         -6.5837   -7.5775    2.0526 H         1 <0>         0.0722
     36 H8         -6.2220   -8.1868    0.4020 H         1 <0>         0.0766
     37 H9         -4.4024   -9.7626    1.5105 H         1 <0>         0.1192
     38 H10        -5.4029  -10.6937    3.4954 H         1 <0>         0.1078
     39 H11        -6.6522   -9.2559    3.5402 H         1 <0>         0.1035
     40 H12         1.2257   -1.7631   -0.0187 H         1 <0>         0.1435
     41 H13         3.6995   -1.6965   -0.0424 H         1 <0>         0.1332
     42 H14         5.7504   -0.3946   -0.0553 H         1 <0>         0.1266
     43 H15         5.7093    2.0510   -0.0426 H         1 <0>         0.1265
     44 H16         3.6152    3.2827   -0.0156 H         1 <0>         0.1328
     45 H17         1.1364    3.2638    0.0084 H         1 <0>         0.1452
     46 H18        -3.6560    3.0462    0.0523 H         1 <0>         0.1112
     47 H19        -4.3016    1.6300    0.9490 H         1 <0>         0.0891
     48 H20        -4.3186    1.6396   -0.8472 H         1 <0>         0.0897
@<TRIPOS>BOND
     1    1    2 1
     2    1   30 1
     3    1   31 1
     4    1   32 1
     5    2    3 1
     6    2    4 1
     7    2   13 1
     8    4    5 2
     9    4    6 am
    10    6    7 am
    11    6   33 1
    12    7    8 2
    13    7    9 am
    14    9   10 1
    15    9   34 1
    16   10   11 1
    17   10   35 1
    18   10   36 1
    19   11   12 2
    20   11   37 1
    21   12   38 1
    22   12   39 1
    23   13   14 1
    24   14   28 1
    25   14   15 2
    26   15   16 1
    27   16   25 ar
    28   16   17 ar
    29   17   18 ar
    30   17   40 1
    31   18   23 ar
    32   18   19 ar
    33   19   20 ar
    34   19   41 1
    35   20   21 ar
    36   20   42 1
    37   21   22 ar
    38   21   43 1
    39   22   23 ar
    40   22   44 1
    41   23   24 ar
    42   24   25 ar
    43   24   45 1
    44   25   26 1
    45   26   27 2
    46   26   28 am
    47   28   29 1
    48   29   46 1
    49   29   47 1
    50   29   48 1
@<TRIPOS>MOLECULE
ZINC43920825
   49    52     0     0     0
SMALL
USER_CHARGES

@<TRIPOS>ATOM
      1 C1          1.7372    1.2292    0.7308 C.3       1 <0>        -0.1523
      2 C2          1.3035   -0.2248    0.5346 C.3       1 <0>         0.0564
      3 O1          1.5345   -0.6119   -0.8215 O.3       1 <0>        -0.3127
      4 C3          1.2008   -1.8845   -1.1656 C.ar      1 <0>         0.1043
      5 C4          0.6578   -2.7397   -0.2205 C.ar      1 <0>        -0.1926
      6 C5          0.3195   -4.0333   -0.5718 C.ar      1 <0>        -0.0983
      7 C6          0.5211   -4.4777   -1.8656 C.ar      1 <0>        -0.1392
      8 C7          1.0618   -3.6308   -2.8144 C.ar      1 <0>        -0.0963
      9 C8          1.3989   -2.3296   -2.4707 C.ar      1 <0>         0.1181
     10 N1          1.9422   -1.4677   -3.4318 N.am      1 <0>        -0.6469
     11 C9          2.6585   -1.9683   -4.4579 C.2       1 <0>         0.5879
     12 O2          2.7628   -3.1724   -4.5966 O.2       1 <0>        -0.5413
     13 C10         3.3142   -1.0585   -5.4103 C.2       1 <0>        -0.3207
     14 C11         3.9479   -1.5511   -6.5316 C.2       1 <0>         0.2489
     15 N2          4.5536   -0.7452   -7.4154 N.pl3     1 <0>        -0.5746
     16 H1          4.9848   -1.1446   -8.1870 H         1 <0>         0.4231
     17 C12         4.5902    0.6153   -7.2775 C.2       1 <0>         0.3356
     18 C13         3.9838    1.2330   -6.1841 C.2       1 <0>        -0.3029
     19 C14         3.3020    0.3974   -5.1889 C.2       1 <0>         0.4622
     20 O3          2.7521    0.8877   -4.2170 O.2       1 <0>        -0.4819
     21 C15         4.1869    2.6220   -6.3167 C.2       1 <0>         0.1665
     22 N3          4.8664    2.8320   -7.4100 N.2       1 <0>        -0.2654
     23 N4          5.1341    1.6068   -8.0319 N.pl3     1 <0>        -0.3228
     24 C16         5.8428    1.4320   -9.2290 C.ar      1 <0>         0.1324
     25 C17         6.6513    0.3166   -9.4016 C.ar      1 <0>        -0.1158
     26 C18         7.3486    0.1462  -10.5814 C.ar      1 <0>        -0.1237
     27 C19         7.2423    1.0873  -11.5917 C.ar      1 <0>         0.1065
     28 C20         6.4367    2.2007  -11.4213 C.ar      1 <0>        -0.1265
     29 C21         5.7326    2.3713  -10.2455 C.ar      1 <0>        -0.0717
     30 F1          7.9256    0.9191  -12.7450 F         1 <0>        -0.1285
     31 C22         3.7024    3.6811   -5.3603 C.3       1 <0>        -0.0817
     32 H2          2.7983    1.3261    0.5010 H         1 <0>         0.0665
     33 H3          1.1612    1.8730    0.0660 H         1 <0>         0.0676
     34 H4          1.5610    1.5245    1.7651 H         1 <0>         0.0778
     35 H5          1.8795   -0.8686    1.1994 H         1 <0>         0.0611
     36 H6          0.2425   -0.3217    0.7644 H         1 <0>         0.0616
     37 H7          0.4990   -2.3958    0.7909 H         1 <0>         0.1304
     38 H8         -0.1031   -4.6988    0.1665 H         1 <0>         0.1248
     39 H9          0.2556   -5.4892   -2.1352 H         1 <0>         0.1267
     40 H10         1.2186   -3.9806   -3.8241 H         1 <0>         0.1559
     41 H11         1.8030   -0.5105   -3.3590 H         1 <0>         0.4273
     42 H12         3.9569   -2.6175   -6.7026 H         1 <0>         0.1974
     43 H13         6.7350   -0.4172   -8.6136 H         1 <0>         0.1347
     44 H14         7.9776   -0.7214  -10.7160 H         1 <0>         0.1521
     45 H15         6.3553    2.9338  -12.2103 H         1 <0>         0.1520
     46 H16         5.1007    3.2373  -10.1148 H         1 <0>         0.1503
     47 H17         4.4625    3.8588   -4.5996 H         1 <0>         0.0897
     48 H18         3.5125    4.6048   -5.9069 H         1 <0>         0.0817
     49 H19         2.7818    3.3457   -4.8827 H         1 <0>         0.0963
@<TRIPOS>BOND
     1    1    2 1
     2    1   32 1
     3    1   33 1
     4    1   34 1
     5    2    3 1
     6    2   35 1
     7    2   36 1
     8    3    4 1
     9    4    9 ar
    10    4    5 ar
    11    5    6 ar
    12    5   37 1
    13    6    7 ar
    14    6   38 1
    15    7    8 ar
    16    7   39 1
    17    8    9 ar
    18    8   40 1
    19    9   10 1
    20   10   11 am
    21   10   41 1
    22   11   12 2
    23   11   13 1
    24   13   19 1
    25   13   14 2
    26   14   15 1
    27   14   42 1
    28   15   16 1
    29   15   17 1
    30   17   23 1
    31   17   18 2
    32   18   19 1
    33   18   21 1
    34   19   20 2
    35   21   22 2
    36   21   31 1
    37   22   23 1
    38   23   24 1
    39   24   29 ar
    40   24   25 ar
    41   25   26 ar
    42   25   43 1
    43   26   27 ar
    44   26   44 1
    45   27   28 ar
    46   27   30 1
    47   28   29 ar
    48   28   45 1
    49   29   46 1
    50   31   47 1
    51   31   48 1
    52   31   49 1
@<TRIPOS>MOLECULE
ZINC13041663
   48    50     0     0     0
SMALL
USER_CHARGES

@<TRIPOS>ATOM
      1 C1          6.8702   -5.3148   -0.1838 C.ar      1 <0>        -0.0594
      2 C2          5.5004   -5.3102   -0.3697 C.ar      1 <0>        -0.1354
      3 C3          4.8005   -4.1191   -0.3223 C.ar      1 <0>        -0.0166
      4 C4          5.4702   -2.9326   -0.0885 C.ar      1 <0>        -0.6785
      5 C5          6.8399   -2.9373    0.0983 C.ar      1 <0>        -0.0194
      6 C6          7.5400   -4.1283    0.0495 C.ar      1 <0>        -0.1396
      7 S1          4.5782   -1.4143   -0.0292 S.o2      1 <0>         2.6876
      8 O1          5.4743   -0.3997   -0.4615 O.2       1 <0>        -0.9481
      9 O2          3.3306   -1.6511   -0.6668 O.2       1 <0>        -0.9463
     10 N1          4.2448   -1.1042    1.5630 N.pl3     1 <0>        -1.0623
     11 C7          3.4385   -1.9818    2.2914 C.ar      1 <0>         0.1025
     12 C8          2.0642   -1.9961    2.0880 C.ar      1 <0>        -0.0483
     13 C9          1.2701   -2.8654    2.8095 C.ar      1 <0>        -0.1280
     14 C10         1.8413   -3.7208    3.7341 C.ar      1 <0>        -0.0076
     15 C11         3.2086   -3.7088    3.9394 C.ar      1 <0>        -0.6367
     16 C12         4.0095   -2.8461    3.2166 C.ar      1 <0>        -0.0110
     17 S2          3.9309   -4.7998    5.1194 S.o2      1 <0>         2.6410
     18 O3          5.1625   -4.2119    5.5155 O.2       1 <0>        -0.9787
     19 O4          2.9081   -5.1260    6.0504 O.2       1 <0>        -0.9691
     20 N2          4.3101   -6.2012    4.3227 N.2       1 <0>        -0.9939
     21 C13         4.8594   -7.1810    4.9635 C.2       1 <0>         0.5702
     22 C14         5.1535   -7.0503    6.4561 C.3       1 <0>        -0.1684
     23 C15         4.2072   -7.9810    7.1838 C.3       1 <0>        -0.1200
     24 C16         4.7530   -9.4010    7.3445 C.3       1 <0>        -0.1206
     25 C17         5.4316   -9.9291    6.0801 C.3       1 <0>        -0.1512
     26 C18         4.6694   -9.6047    4.8137 C.3       1 <0>         0.1281
     27 N3          5.1620   -8.2975    4.3309 N.pl3     1 <0>        -0.7269
     28 H1          7.4164   -6.2459   -0.2164 H         1 <0>         0.1322
     29 H2          4.9771   -6.2371   -0.5524 H         1 <0>         0.1345
     30 H3          3.7304   -4.1154   -0.4682 H         1 <0>         0.1405
     31 H4          7.3632   -2.0104    0.2806 H         1 <0>         0.1397
     32 H5          8.6102   -4.1319    0.1950 H         1 <0>         0.1348
     33 H6          4.6094   -0.3131    1.9897 H         1 <0>         0.4289
     34 H7          1.6175   -1.3280    1.3667 H         1 <0>         0.1472
     35 H8          0.2018   -2.8770    2.6519 H         1 <0>         0.1451
     36 H9          1.2179   -4.3994    4.2974 H         1 <0>         0.1466
     37 H10         5.0779   -2.8406    3.3740 H         1 <0>         0.1455
     38 H11         6.1852   -7.3385    6.6575 H         1 <0>         0.1191
     39 H12         4.9846   -6.0229    6.7788 H         1 <0>         0.0826
     40 H13         4.0055   -7.5703    8.1731 H         1 <0>         0.0833
     41 H14         3.2693   -8.0279    6.6304 H         1 <0>         0.0711
     42 H15         5.4764   -9.4083    8.1598 H         1 <0>         0.0699
     43 H16         3.9292  -10.0659    7.6041 H         1 <0>         0.0714
     44 H17         6.4284   -9.4938    6.0100 H         1 <0>         0.0735
     45 H18         5.5301  -11.0116    6.1618 H         1 <0>         0.0786
     46 H19         4.8531  -10.3728    4.0624 H         1 <0>         0.0992
     47 H20         3.6026   -9.5409    5.0281 H         1 <0>         0.0790
     48 H21         5.7176   -8.2627    3.5366 H         1 <0>         0.4139
@<TRIPOS>BOND
     1    1    6 ar
     2    1    2 ar
     3    1   28 1
     4    2    3 ar
     5    2   29 1
     6    3    4 ar
     7    3   30 1
     8    4    5 ar
     9    4    7 1
    10    5    6 ar
    11    5   31 1
    12    6   32 1
    13    7    8 2
    14    7    9 2
    15    7   10 1
    16   10   11 1
    17   10   33 1
    18   11   16 ar
    19   11   12 ar
    20   12   13 ar
    21   12   34 1
    22   13   14 ar
    23   13   35 1
    24   14   15 ar
    25   14   36 1
    26   15   16 ar
    27   15   17 1
    28   16   37 1
    29   17   18 2
    30   17   19 2
    31   17   20 1
    32   20   21 2
    33   21   27 1
    34   21   22 1
    35   22   23 1
    36   22   38 1
    37   22   39 1
    38   23   24 1
    39   23   40 1
    40   23   41 1
    41   24   25 1
    42   24   42 1
    43   24   43 1
    44   25   26 1
    45   25   44 1
    46   25   45 1
    47   26   27 1
    48   26   46 1
    49   26   47 1
    50   27   48 1
@<TRIPOS>MOLECULE
ZINC06036957
   37    38     0     0     0
SMALL
USER_CHARGES
3-[2-(aminomethyleneamino)ethylsulfanyl]-7-(1-hydroxyethyl)-6-oxo-5-azabicyclo[3.2.0]hept-3-ene-4-carboxylic acid
@<TRIPOS>ATOM
      1 C1         -1.1449    4.2923    0.8778 C.3       1 <0>        -0.1884
      2 C2         -1.6256    2.8424    0.9650 C.3       1 <0>         0.1208
      3 H1         -1.3513    2.4264    1.9344 H         1 <0>         0.0664
      4 C3         -0.9706    2.0201   -0.1466 C.3       1 <0>        -0.1500
      5 H2         -1.0392    2.4961   -1.1248 H         1 <0>         0.1241
      6 C4         -1.3874    0.5435   -0.1487 C.3       1 <0>         0.0713
      7 H3         -2.1006    0.2521    0.6224 H         1 <0>         0.1380
      8 C5         -1.6776   -0.0297   -1.5441 C.3       1 <0>        -0.0749
      9 C6         -0.3694   -0.7339   -1.9229 C.2       1 <0>        -0.2268
     10 C7          0.5291   -0.5521   -0.9361 C.2       1 <0>         0.1353
     11 N1          0.0309    0.2299    0.1191 N.am      1 <0>        -0.4837
     12 C8          0.4220    1.5326    0.1967 C.2       1 <0>         0.5185
     13 O1          1.4732    2.0854    0.4439 O.2       1 <0>        -0.4234
     14 C9          1.8367   -1.0920   -0.9598 C.2       1 <0>         0.4735
     15 O2          2.6283   -0.8086   -0.0795 O.co2     1 <0>        -0.5993
     16 S1         -0.0907   -1.6373   -3.4098 S.3       1 <0>         0.0216
     17 C10        -0.2158   -0.2971   -4.6199 C.3       1 <0>        -0.1769
     18 C11         0.1209   -0.8342   -6.0124 C.3       1 <0>         0.1139
     19 C12         1.0121    0.7334   -7.6767 C.cat     1 <0>         0.5182
     20 N2          0.8009    1.7518   -8.5683 N.pl3     1 <0>        -0.7986
     21 O3         -3.0460    2.8016    0.8138 O.3       1 <0>        -0.5629
     22 H4         -1.4193    4.7083   -0.0918 H         1 <0>         0.0641
     23 H5         -1.6116    4.8781    1.6696 H         1 <0>         0.0651
     24 H6         -0.0615    4.3235    0.9931 H         1 <0>         0.0742
     25 H7         -2.5001   -0.7436   -1.4983 H         1 <0>         0.0958
     26 H8         -1.9084    0.7730   -2.2444 H         1 <0>         0.0778
     27 H9         -1.2311    0.0995   -4.6192 H         1 <0>         0.0839
     28 H10         0.4842    0.4960   -4.3573 H         1 <0>         0.0906
     29 H11         1.1363   -1.2307   -6.0131 H         1 <0>         0.1324
     30 H12        -0.5791   -1.6273   -6.2749 H         1 <0>         0.1189
     31 H13         2.0050    0.3305   -7.5423 H         1 <0>         0.2411
     32 H14        -0.0909    2.1136   -8.6890 H         1 <0>         0.4218
     33 H15         1.5433    2.1111   -9.0789 H         1 <0>         0.4426
     34 H16        -3.5277    3.3028    1.4860 H         1 <0>         0.3835
     35 O4          2.2065   -1.9216   -1.9586 O.co2     1 <0>        -0.7063
     36 N3         -0.0419    0.2822   -7.0061 N.pl3     1 <0>        -0.6406
     37 H17        -0.9679    0.6958   -7.1664 H         1 <0>         0.4386
@<TRIPOS>BOND
     1    1    2 1
     2    1   22 1
     3    1   23 1
     4    1   24 1
     5    2    3 1
     6    2    4 1
     7    2   21 1
     8    4    5 1
     9    4   12 1
    10    4    6 1
    11    6    7 1
    12    6   11 1
    13    6    8 1
    14    8    9 1
    15    8   25 1
    16    8   26 1
    17    9   10 2
    18    9   16 1
    19   10   11 1
    20   10   14 1
    21   11   12 am
    22   12   13 2
    23   14   15 2
    24   14   35 1
    25   16   17 1
    26   17   18 1
    27   17   27 1
    28   17   28 1
    29   18   29 1
    30   18   30 1
    31   18   36 1
    32   19   20 1
    33   19   31 1
    34   19   36 2
    35   20   32 1
    36   20   33 1
    37   21   34 1
    38   36   37 1
@<TRIPOS>MOLECULE
ZINC37735882
   32    32     0     0     0
SMALL
USER_CHARGES

@<TRIPOS>ATOM
      1 C1         -0.0175    1.4403    0.0100 C.2       1 <0>        -0.0918
      2 C2          1.1865    2.0434    0.0017 C.2       1 <0>        -0.2419
      3 S1          2.3275    0.6781   -0.0165 S.3       1 <0>         0.3123
      4 C3          1.2499   -0.6078   -0.0131 C.2       1 <0>         0.0526
      5 C4          0.0021   -0.0041    0.0020 C.2       1 <0>        -0.1440
      6 C5         -1.2059   -0.7731    0.0099 C.1       1 <0>         0.2684
      7 N1         -2.1642   -1.3831    0.0161 N.1       1 <0>        -0.4247
      8 N2          1.5410   -1.9649   -0.0239 N.am      1 <0>        -0.6174
      9 C6          2.8235   -2.3790   -0.0386 C.2       1 <0>         0.5269
     10 O1          3.7233   -1.5657   -0.0425 O.2       1 <0>        -0.4680
     11 C7          3.1396   -3.8524   -0.0503 C.3       1 <0>        -0.1348
     12 S2          4.9385   -4.0848   -0.0689 S.3       1 <0>        -0.1399
     13 C8          5.1481   -5.8866   -0.0815 C.3       1 <0>        -0.1288
     14 C9          6.6398   -6.2264   -0.0978 C.3       1 <0>        -0.1109
     15 C10         6.8166   -7.7461   -0.1084 C.3       1 <0>        -0.0431
     16 H1          6.2812   -8.1801    0.7361 H         1 <0>         0.1356
     17 C11         8.2817   -8.0822   -0.0006 C.2       1 <0>         0.4882
     18 O2          8.7931   -8.2349    1.0957 O.co2     1 <0>        -0.6326
     19 O3          8.9557   -8.2013   -1.0096 O.co2     1 <0>        -0.6648
     20 N3          6.2798   -8.2928   -1.3617 N.4       1 <0>        -0.6157
     21 H2         -0.9401    2.0015    0.0261 H         1 <0>         0.1500
     22 H3          1.4065    3.1007    0.0053 H         1 <0>         0.1957
     23 H4          0.8214   -2.6154   -0.0208 H         1 <0>         0.4222
     24 H5          2.7219   -4.3206    0.8410 H         1 <0>         0.1222
     25 H6          2.7049   -4.3102   -0.9388 H         1 <0>         0.1203
     26 H7          4.6883   -6.3121    0.8105 H         1 <0>         0.0962
     27 H8          4.6712   -6.3017   -0.9694 H         1 <0>         0.0743
     28 H9          7.0997   -5.8009   -0.9897 H         1 <0>         0.0968
     29 H10         7.1168   -5.8113    0.7901 H         1 <0>         0.1186
     30 H11         6.7754   -7.8911   -2.1434 H         1 <0>         0.4349
     31 H12         6.3964   -9.2951   -1.3687 H         1 <0>         0.4325
     32 H13         5.2988   -8.0678   -1.4339 H         1 <0>         0.4109
@<TRIPOS>BOND
     1    1    5 1
     2    1    2 2
     3    1   21 1
     4    2    3 1
     5    2   22 1
     6    3    4 1
     7    4    5 2
     8    4    8 1
     9    5    6 1
    10    6    7 3
    11    8    9 am
    12    8   23 1
    13    9   10 2
    14    9   11 1
    15   11   12 1
    16   11   24 1
    17   11   25 1
    18   12   13 1
    19   13   14 1
    20   13   26 1
    21   13   27 1
    22   14   15 1
    23   14   28 1
    24   14   29 1
    25   15   16 1
    26   15   17 1
    27   15   20 1
    28   17   18 2
    29   17   19 1
    30   20   30 1
    31   20   31 1
    32   20   32 1
@<TRIPOS>MOLECULE
ZINC41834055
   49    49     0     0     0
SMALL
USER_CHARGES

@<TRIPOS>ATOM
      1 C1         -1.3536    0.8811    0.6201 C.3       1 <0>        -0.1546
      2 C2         -0.5056   -0.3573    0.3231 C.3       1 <0>        -0.0245
      3 C3          0.3426   -0.7007    1.5492 C.3       1 <0>        -0.1029
      4 C4          1.3193   -1.8240    1.1954 C.3       1 <0>         0.1022
      5 C5          2.1145   -2.2197    2.4412 C.3       1 <0>        -0.1745
      6 C6          0.5387   -3.0357    0.6824 C.3       1 <0>        -0.2130
      7 O1          2.2179   -1.3717    0.1805 O.3       1 <0>        -0.4157
      8 C7          3.1771   -2.3505   -0.2247 C.3       1 <0>         0.0235
      9 C8         -1.4092   -1.5182   -0.0038 C.2       1 <0>         0.5128
     10 O2         -1.3996   -2.0018   -1.1230 O.co2     1 <0>        -0.6698
     11 O3         -2.1497   -1.9738    0.8509 O.co2     1 <0>        -0.6370
     12 N1          0.3749   -0.0849   -0.8208 N.4       1 <0>        -0.4698
     13 C9         -0.4241    0.4239   -1.9436 C.3       1 <0>         0.0308
     14 C10        -0.3869    1.9534   -1.9442 C.3       1 <0>        -0.1490
     15 C11        -1.2191    2.4834   -3.1136 C.3       1 <0>        -0.0957
     16 C12        -0.6415    1.9586   -4.4297 C.3       1 <0>        -0.1129
     17 C13        -0.6787    0.4291   -4.4290 C.3       1 <0>        -0.1052
     18 C14         0.1535   -0.1008   -3.2596 C.3       1 <0>        -0.1279
     19 C15        -1.4612    2.4806   -5.5815 C.2       1 <0>         0.5207
     20 O4         -2.4136    3.2013   -5.3706 O.2       1 <0>        -0.5379
     21 N2         -1.1359    2.1465   -6.8460 N.am      1 <0>        -0.8552
     22 H1         -0.7069    1.7556    0.6919 H         1 <0>         0.0674
     23 H2         -2.0757    1.0282   -0.1830 H         1 <0>         0.0764
     24 H3         -1.8823    0.7418    1.5631 H         1 <0>         0.0971
     25 H4          0.9013    0.1811    1.8631 H         1 <0>         0.0811
     26 H5         -0.3075   -1.0268    2.3610 H         1 <0>         0.1228
     27 H6          1.4290   -2.5646    3.2153 H         1 <0>         0.0750
     28 H7          2.8102   -3.0199    2.1891 H         1 <0>         0.0652
     29 H8          2.6706   -1.3564    2.8067 H         1 <0>         0.0651
     30 H9          0.2432   -2.8658   -0.3529 H         1 <0>         0.0948
     31 H10         1.1678   -3.9240    0.7395 H         1 <0>         0.0547
     32 H11        -0.3511   -3.1807    1.2951 H         1 <0>         0.0961
     33 H12         3.7821   -2.6433    0.6333 H         1 <0>         0.0543
     34 H13         2.6595   -3.2247   -0.6197 H         1 <0>         0.0539
     35 H14         3.8212   -1.9300   -0.9970 H         1 <0>         0.0892
     36 H15         1.0636    0.6043   -0.5585 H         1 <0>         0.4035
     37 H16        -1.4549    0.0856   -1.8387 H         1 <0>         0.1467
     38 H17        -0.7983    2.3273   -1.0066 H         1 <0>         0.0940
     39 H18         0.6440    2.2918   -2.0491 H         1 <0>         0.0800
     40 H19        -2.2499    2.1450   -3.0087 H         1 <0>         0.0816
     41 H20        -1.1926    3.5730   -3.1140 H         1 <0>         0.0854
     42 H21         0.3893    2.2970   -4.5346 H         1 <0>         0.1023
     43 H22        -1.7095    0.0908   -4.3241 H         1 <0>         0.0824
     44 H23        -0.2672    0.0553   -5.3666 H         1 <0>         0.0811
     45 H24         1.1843    0.2375   -3.3645 H         1 <0>         0.0758
     46 H25         0.1270   -1.1905   -3.2592 H         1 <0>         0.0979
     47 H26        -0.3743    1.5701   -7.0147 H         1 <0>         0.4015
     48 H27        -1.6636    2.4825   -7.5874 H         1 <0>         0.4037
     49 H28         0.8399   -0.9365   -1.0976 H         1 <0>         0.4264
@<TRIPOS>BOND
     1    1    2 1
     2    1   22 1
     3    1   23 1
     4    1   24 1
     5    2    3 1
     6    2    9 1
     7    2   12 1
     8    3    4 1
     9    3   25 1
    10    3   26 1
    11    4    5 1
    12    4    6 1
    13    4    7 1
    14    5   27 1
    15    5   28 1
    16    5   29 1
    17    6   30 1
    18    6   31 1
    19    6   32 1
    20    7    8 1
    21    8   33 1
    22    8   34 1
    23    8   35 1
    24    9   10 2
    25    9   11 1
    26   12   13 1
    27   12   36 1
    28   12   49 1
    29   13   18 1
    30   13   14 1
    31   13   37 1
    32   14   15 1
    33   14   38 1
    34   14   39 1
    35   15   16 1
    36   15   40 1
    37   15   41 1
    38   16   17 1
    39   16   19 1
    40   16   42 1
    41   17   18 1
    42   17   43 1
    43   17   44 1
    44   18   45 1
    45   18   46 1
    46   19   20 2
    47   19   21 am
    48   21   47 1
    49   21   48 1
@<TRIPOS>MOLECULE
ZINC48439566
   44    44     0     0     0
SMALL
USER_CHARGES

@<TRIPOS>ATOM
      1 C1         -0.1583    1.5069   -0.0494 C.3       1 <0>        -0.1510
      2 C2          0.0010   -0.0138    0.0052 C.3       1 <0>         0.1503
      3 H1         -0.9823   -0.4802    0.0654 H         1 <0>         0.1220
      4 C3          0.8110   -0.3907    1.2188 C.2       1 <0>         0.5075
      5 O1          1.8588   -0.9872    1.0872 O.2       1 <0>        -0.5426
      6 N1          0.3711   -0.0650    2.4504 N.am      1 <0>        -0.7320
      7 C4          1.1585   -0.4315    3.6302 C.3       1 <0>         0.0864
      8 N2          0.6878   -0.4765   -1.2033 N.pl3     1 <0>        -0.7218
      9 C5         -0.0480   -0.7156   -2.3871 C.2       1 <0>        -0.0706
     10 C6          0.5612   -1.2582   -3.4858 C.2       1 <0>         0.3920
     11 N3         -0.1773   -1.4809   -4.6258 N.am      1 <0>        -0.5298
     12 C7         -1.4857   -1.1685   -4.6609 C.2       1 <0>         0.6998
     13 O2         -2.1227   -1.3726   -5.6766 O.2       1 <0>        -0.5357
     14 N4         -2.1004   -0.6344   -3.5901 N.am      1 <0>        -0.5540
     15 C8         -1.4182   -0.4045   -2.4510 C.2       1 <0>         0.5582
     16 O3         -1.9843    0.0749   -1.4828 O.2       1 <0>        -0.5232
     17 C9         -3.5261   -0.3052   -3.6611 C.3       1 <0>         0.0836
     18 C10         0.4649   -2.0610   -5.8079 C.3       1 <0>         0.1136
     19 C11         0.3604   -3.5862   -5.7483 C.3       1 <0>        -0.1139
     20 C12        -1.1094   -4.0007   -5.8419 C.3       1 <0>        -0.1415
     21 C13         1.1377   -4.1967   -6.9162 C.3       1 <0>        -0.1461
     22 N5          1.8993   -1.5777   -3.4514 N.pl3     1 <0>        -0.8433
     23 H2          0.8251    1.9733   -0.1097 H         1 <0>         0.0511
     24 H3         -0.7441    1.7796   -0.9272 H         1 <0>         0.0755
     25 H4         -0.6692    1.8513    0.8497 H         1 <0>         0.0600
     26 H5         -0.4669    0.4121    2.5556 H         1 <0>         0.4047
     27 H6          1.2720   -1.5149    3.6691 H         1 <0>         0.0598
     28 H7          2.1418    0.0349    3.5699 H         1 <0>         0.0600
     29 H8          0.6475   -0.0872    4.5293 H         1 <0>         0.0769
     30 H9          1.6472   -0.6190   -1.1915 H         1 <0>         0.3998
     31 H10        -4.1141   -1.1661   -3.3431 H         1 <0>         0.0721
     32 H11        -3.7368    0.5405   -3.0064 H         1 <0>         0.0935
     33 H12        -3.7883   -0.0449   -4.6866 H         1 <0>         0.0911
     34 H13        -0.0328   -1.6975   -6.7069 H         1 <0>         0.1084
     35 H14         1.5149   -1.7694   -5.8308 H         1 <0>         0.0896
     36 H15         0.7792   -3.9426   -4.8072 H         1 <0>         0.0747
     37 H16        -1.6632   -3.5658   -5.0098 H         1 <0>         0.0494
     38 H17        -1.5283   -3.6443   -6.7829 H         1 <0>         0.0656
     39 H18        -1.1839   -5.0873   -5.7994 H         1 <0>         0.0544
     40 H19         2.1849   -3.9014   -6.8496 H         1 <0>         0.0576
     41 H20         1.0633   -5.2833   -6.8738 H         1 <0>         0.0639
     42 H21         0.7189   -3.8403   -7.8573 H         1 <0>         0.0617
     43 H22         2.4153   -1.4185   -2.6456 H         1 <0>         0.4183
     44 H23         2.3264   -1.9622   -4.2328 H         1 <0>         0.4043
@<TRIPOS>BOND
     1    1    2 1
     2    1   23 1
     3    1   24 1
     4    1   25 1
     5    2    3 1
     6    2    4 1
     7    2    8 1
     8    4    5 2
     9    4    6 am
    10    6    7 1
    11    6   26 1
    12    7   27 1
    13    7   28 1
    14    7   29 1
    15    8    9 1
    16    8   30 1
    17    9   15 1
    18    9   10 2
    19   10   11 1
    20   10   22 1
    21   11   12 am
    22   11   18 1
    23   12   13 2
    24   12   14 am
    25   14   15 am
    26   14   17 1
    27   15   16 2
    28   17   31 1
    29   17   32 1
    30   17   33 1
    31   18   19 1
    32   18   34 1
    33   18   35 1
    34   19   20 1
    35   19   21 1
    36   19   36 1
    37   20   37 1
    38   20   38 1
    39   20   39 1
    40   21   40 1
    41   21   41 1
    42   21   42 1
    43   22   43 1
    44   22   44 1
@<TRIPOS>MOLECULE
ZINC56863324
   34    34     0     0     0
SMALL
USER_CHARGES

@<TRIPOS>ATOM
      1 C1         -0.0187    1.5258    0.0104 C.3       1 <0>        -0.1631
      2 C2          0.0021   -0.0041    0.0020 C.3       1 <0>         0.1284
      3 H1          0.5123   -0.3556   -0.8948 H         1 <0>         0.1228
      4 C3         -1.4117   -0.5257    0.0127 C.2       1 <0>         0.5122
      5 O1         -1.7902   -1.2332    0.9222 O.2       1 <0>        -0.5246
      6 N1         -2.2556   -0.2060   -0.9884 N.am      1 <0>        -0.7189
      7 C4         -3.6300   -0.7131   -0.9780 C.3       1 <0>         0.1317
      8 C5         -4.3700   -0.2062   -2.2175 C.3       1 <0>        -0.6526
      9 S1         -6.0718   -0.8341   -2.2046 S.o2      1 <0>         2.6285
     10 O2         -6.0752   -2.2427   -2.3919 O.2       1 <0>        -0.9529
     11 O3         -6.8035   -0.2431   -1.1395 O.2       1 <0>        -0.9503
     12 N2         -6.7612   -0.2233   -3.5808 N.pl3     1 <0>        -1.2475
     13 N3          0.7106   -0.4894    1.1889 N.am      1 <0>        -0.7098
     14 C6          2.0538   -0.5998    1.1737 C.2       1 <0>         0.6126
     15 O4          2.6781   -0.2963    0.1739 O.2       1 <0>        -0.5188
     16 C7          2.7623   -1.0851    2.3605 C.2       1 <0>        -0.2458
     17 C8          4.1240   -1.2653    2.5528 C.2       1 <0>        -0.0640
     18 C9          4.4948   -1.7402    3.7873 C.2       1 <0>        -0.1419
     19 C10         3.5339   -1.9950    4.7116 C.2       1 <0>        -0.2257
     20 S2          2.0995   -1.5905    3.9363 S.3       1 <0>         0.2727
     21 Br1         3.7591   -2.6477    6.4721 Br        1 <0>         0.0501
     22 H2          1.0039    1.9031    0.0027 H         1 <0>         0.0801
     23 H3         -0.5459    1.8868   -0.8726 H         1 <0>         0.0747
     24 H4         -0.5289    1.8773    0.9072 H         1 <0>         0.0684
     25 H5         -1.9529    0.3598   -1.7158 H         1 <0>         0.4079
     26 H6         -3.6152   -1.8030   -0.9840 H         1 <0>         0.0897
     27 H7         -4.1402   -0.3616   -0.0812 H         1 <0>         0.0899
     28 H8         -4.3847    0.8836   -2.2115 H         1 <0>         0.1429
     29 H9         -3.8598   -0.5578   -3.1143 H         1 <0>         0.1455
     30 H10        -7.4649   -0.7164   -4.0308 H         1 <0>         0.4242
     31 H11        -6.4613    0.6277   -3.9370 H         1 <0>         0.4147
     32 H12         0.2131   -0.7312    1.9857 H         1 <0>         0.4109
     33 H13         4.8469   -1.0464    1.7809 H         1 <0>         0.1594
     34 H14         5.5361   -1.9089    4.0191 H         1 <0>         0.1489
@<TRIPOS>BOND
     1    1    2 1
     2    1   22 1
     3    1   23 1
     4    1   24 1
     5    2    3 1
     6    2    4 1
     7    2   13 1
     8    4    5 2
     9    4    6 am
    10    6    7 1
    11    6   25 1
    12    7    8 1
    13    7   26 1
    14    7   27 1
    15    8    9 1
    16    8   28 1
    17    8   29 1
    18    9   10 2
    19    9   11 2
    20    9   12 1
    21   12   30 1
    22   12   31 1
    23   13   14 am
    24   13   32 1
    25   14   15 2
    26   14   16 1
    27   16   20 1
    28   16   17 2
    29   17   18 1
    30   17   33 1
    31   18   19 2
    32   18   34 1
    33   19   20 1
    34   19   21 1
@<TRIPOS>MOLECULE
ZINC04082345
   50    51     0     0     0
SMALL
USER_CHARGES
3-methyl-2-[(1-pyrrolidin-2-ylcarbonyl-4-piperidyl)carbonylamino]butanoic acid
@<TRIPOS>ATOM
      1 C1         -0.0127    1.0858    0.0080 C.3       1 <0>        -0.1569
      2 C2         -0.7288    1.5792    1.2668 C.3       1 <0>        -0.0828
      3 H1         -0.7436    2.6691    1.2728 H         1 <0>         0.0634
      4 C3         -2.1642    1.0497    1.2777 C.3       1 <0>        -0.1430
      5 C4          0.0111    1.0724    2.5063 C.3       1 <0>         0.1034
      6 H2          0.0259   -0.0175    2.5003 H         1 <0>         0.0878
      7 C5          1.4250    1.5940    2.4956 C.2       1 <0>         0.4612
      8 O1          1.8193    2.2891    3.4019 O.co2     1 <0>        -0.6369
      9 N1         -0.6746    1.5449    3.7117 N.am      1 <0>        -0.6954
     10 C6         -0.5516    0.8633    4.8679 C.2       1 <0>         0.5153
     11 O2          0.1268   -0.1412    4.9105 O.2       1 <0>        -0.5401
     12 C7         -1.2569    1.3493    6.1077 C.3       1 <0>        -0.1056
     13 C8         -0.7675    2.7574    6.4539 C.3       1 <0>        -0.1278
     14 C9         -1.5119    3.2618    7.6942 C.3       1 <0>         0.0966
     15 N2         -1.3452    2.2822    8.7765 N.am      1 <0>        -0.5794
     16 C10        -1.7003    0.8797    8.5207 C.3       1 <0>         0.1097
     17 C11        -0.9541    0.4021    7.2710 C.3       1 <0>        -0.1162
     18 C12        -0.8758    2.6631    9.9811 C.2       1 <0>         0.5080
     19 O3         -0.7431    1.8449   10.8665 O.2       1 <0>        -0.5325
     20 C13        -0.5159    4.1055   10.2279 C.3       1 <0>         0.0027
     21 H3         -1.2680    4.7639    9.7933 H         1 <0>         0.1641
     22 C14         0.8778    4.4203    9.6431 C.3       1 <0>        -0.1403
     23 C15         1.5256    5.3914   10.6515 C.3       1 <0>        -0.1465
     24 C16         0.4689    5.5816   11.7608 C.3       1 <0>        -0.0043
     25 H4          0.0021   -0.0041    0.0020 H         1 <0>         0.0458
     26 H5          1.0099    1.4631    0.0003 H         1 <0>         0.1080
     27 H6         -0.5399    1.4469   -0.8751 H         1 <0>         0.0371
     28 H7         -2.6744    1.4012    2.1745 H         1 <0>         0.0454
     29 H8         -2.6914    1.4107    0.3946 H         1 <0>         0.0521
     30 H9         -2.1494   -0.0402    1.2717 H         1 <0>         0.0523
     31 H10        -1.2171    2.3482    3.6776 H         1 <0>         0.3892
     32 H11        -2.3319    1.3723    5.9286 H         1 <0>         0.0966
     33 H12         0.3030    2.7306    6.6577 H         1 <0>         0.0835
     34 H13        -0.9622    3.4265    5.6158 H         1 <0>         0.0930
     35 H14        -2.5712    3.3752    7.4639 H         1 <0>         0.0896
     36 H15        -1.1006    4.2224    8.0043 H         1 <0>         0.0850
     37 H16        -2.7751    0.7987    8.3578 H         1 <0>         0.0831
     38 H17        -1.4130    0.2662    9.3747 H         1 <0>         0.1020
     39 H18        -1.2816   -0.6054    7.0145 H         1 <0>         0.0934
     40 H19         0.1182    0.3973    7.4666 H         1 <0>         0.0794
     41 H20         1.4692    3.5083    9.5622 H         1 <0>         0.1069
     42 H21         0.7802    4.8953    8.6669 H         1 <0>         0.1230
     43 H22         2.4350    4.9560   11.0657 H         1 <0>         0.1038
     44 H23         1.7460    6.3446   10.1711 H         1 <0>         0.1162
     45 H24         0.9500    5.6497   12.7365 H         1 <0>         0.1439
     46 H25        -0.1275    6.4735   11.5688 H         1 <0>         0.1360
     47 O4          2.2461    1.2864    1.4794 O.co2     1 <0>        -0.7492
     48 N3         -0.3634    4.3823   11.6569 N.4       1 <0>        -0.4994
     49 H26         0.0944    3.5911   12.1246 H         1 <0>         0.4420
     50 H27        -1.2812    4.5491   12.0859 H         1 <0>         0.4370
@<TRIPOS>BOND
     1    1    2 1
     2    1   25 1
     3    1   26 1
     4    1   27 1
     5    2    3 1
     6    2    4 1
     7    2    5 1
     8    4   28 1
     9    4   29 1
    10    4   30 1
    11    5    6 1
    12    5    7 1
    13    5    9 1
    14    7    8 2
    15    7   47 1
    16    9   10 am
    17    9   31 1
    18   10   11 2
    19   10   12 1
    20   12   17 1
    21   12   13 1
    22   12   32 1
    23   13   14 1
    24   13   33 1
    25   13   34 1
    26   14   15 1
    27   14   35 1
    28   14   36 1
    29   15   16 1
    30   15   18 am
    31   16   17 1
    32   16   37 1
    33   16   38 1
    34   17   39 1
    35   17   40 1
    36   18   19 2
    37   18   20 1
    38   20   21 1
    39   20   22 1
    40   20   48 1
    41   22   23 1
    42   22   41 1
    43   22   42 1
    44   23   24 1
    45   23   43 1
    46   23   44 1
    47   24   45 1
    48   24   46 1
    49   24   48 1
    50   48   49 1
    51   48   50 1
@<TRIPOS>MOLECULE
ZINC37736490
   34    35     0     0     0
SMALL
USER_CHARGES

@<TRIPOS>ATOM
      1 C1         -0.0167    1.3819    0.0096 C.ar      1 <0>        -0.0895
      2 C2          1.1651    2.0988    0.0022 C.ar      1 <0>        -0.0938
      3 C3          2.3854    1.4416   -0.0134 C.ar      1 <0>        -0.0406
      4 C4          2.4197    0.0564   -0.0211 C.ar      1 <0>        -0.1463
      5 C5          1.2146   -0.6746   -0.0131 C.ar      1 <0>        -0.1379
      6 C6          0.0021   -0.0041    0.0020 C.ar      1 <0>        -0.0415
      7 C7          1.6061   -2.0999   -0.0250 C.2       1 <0>         0.5766
      8 O1          0.8430   -3.0446   -0.0230 O.2       1 <0>        -0.4455
      9 N1          2.9491   -2.1754   -0.0390 N.am      1 <0>        -0.5760
     10 C8          3.5027   -0.9494   -0.0377 C.2       1 <0>         0.5788
     11 O2          4.6932   -0.7091   -0.0487 O.2       1 <0>        -0.4709
     12 C9          3.7088   -3.4280   -0.0532 C.3       1 <0>         0.1347
     13 S1          4.0051   -3.9360   -1.7692 S.3       1 <0>        -0.2024
     14 C10         5.3061   -2.8091   -2.3421 C.3       1 <0>        -0.1127
     15 C11         5.6568   -3.1321   -3.7959 C.3       1 <0>        -0.1097
     16 C12         6.7541   -2.1816   -4.2791 C.3       1 <0>        -0.0436
     17 H1          6.4343   -1.1507   -4.1279 H         1 <0>         0.1352
     18 C13         7.0132   -2.4173   -5.7448 C.2       1 <0>         0.4916
     19 O3          6.1775   -2.0936   -6.5714 O.co2     1 <0>        -0.6316
     20 O4          8.0587   -2.9317   -6.1041 O.co2     1 <0>        -0.6699
     21 N2          7.9861   -2.4288   -3.5181 N.4       1 <0>        -0.6139
     22 H2         -0.9613    1.9053    0.0260 H         1 <0>         0.1462
     23 H3          1.1375    3.1784    0.0082 H         1 <0>         0.1457
     24 H4          3.3057    2.0069   -0.0199 H         1 <0>         0.1431
     25 H5         -0.9244   -0.5590    0.0082 H         1 <0>         0.1455
     26 H6          4.6634   -3.2797    0.4518 H         1 <0>         0.1203
     27 H7          3.1415   -4.2029    0.4623 H         1 <0>         0.1437
     28 H8          4.9520   -1.7805   -2.2736 H         1 <0>         0.0940
     29 H9          6.1922   -2.9305   -1.7190 H         1 <0>         0.0782
     30 H10         6.0109   -4.1607   -3.8644 H         1 <0>         0.0937
     31 H11         4.7707   -3.0107   -4.4190 H         1 <0>         0.1199
     32 H12         8.7097   -1.8021   -3.8367 H         1 <0>         0.4339
     33 H13         7.8125   -2.2710   -2.5367 H         1 <0>         0.4120
     34 H14         8.2821   -3.3832   -3.6581 H         1 <0>         0.4326
@<TRIPOS>BOND
     1    1    6 ar
     2    1    2 ar
     3    1   22 1
     4    2    3 ar
     5    2   23 1
     6    3    4 ar
     7    3   24 1
     8    4   10 1
     9    4    5 ar
    10    5    6 ar
    11    5    7 1
    12    6   25 1
    13    7    8 2
    14    7    9 am
    15    9   10 am
    16    9   12 1
    17   10   11 2
    18   12   13 1
    19   12   26 1
    20   12   27 1
    21   13   14 1
    22   14   15 1
    23   14   28 1
    24   14   29 1
    25   15   16 1
    26   15   30 1
    27   15   31 1
    28   16   17 1
    29   16   18 1
    30   16   21 1
    31   18   19 2
    32   18   20 1
    33   21   32 1
    34   21   33 1
    35   21   34 1
@<TRIPOS>MOLECULE
ZINC42634368
   43    43     0     0     0
SMALL
USER_CHARGES

@<TRIPOS>ATOM
      1 C1         -0.0187    1.5258    0.0104 C.3       1 <0>        -0.1871
      2 C2          0.0021   -0.0041    0.0020 C.3       1 <0>         0.0631
      3 H1          0.5293   -0.3651    0.8851 H         1 <0>         0.1104
      4 C3          0.7074   -0.4901   -1.2379 C.2       1 <0>         0.5233
      5 O1          0.1200   -1.1910   -2.0344 O.2       1 <0>        -0.5146
      6 N1          1.9912   -0.1458   -1.4616 N.am      1 <0>        -0.7242
      7 C4          2.6769   -0.6183   -2.6669 C.3       1 <0>         0.1695
      8 C5          1.9369   -0.1114   -3.9064 C.3       1 <0>        -0.1640
      9 C6          4.1123   -0.0887   -2.6777 C.3       1 <0>        -0.1568
     10 C7          2.6976   -2.1481   -2.6753 C.3       1 <0>        -0.1639
     11 N2         -1.3761   -0.5125    0.0124 N.3       1 <0>        -0.5117
     12 C8         -2.1235   -0.0316   -1.1571 C.3       1 <0>         0.0302
     13 C9         -3.4895   -0.7243   -1.2064 C.3       1 <0>         0.1251
     14 N3         -4.1617   -0.5243    0.0864 N.pl3     1 <0>        -1.0052
     15 C10        -3.4220   -0.8555    1.3138 C.3       1 <0>         0.1231
     16 C11        -2.0587   -0.1577    1.2639 C.3       1 <0>         0.0413
     17 S1         -5.7103    0.0578    0.1582 S.o2      1 <0>         2.7944
     18 O2         -5.8622    0.6509    1.4406 O.2       1 <0>        -0.9825
     19 O3         -5.9290    0.7799   -1.0459 O.2       1 <0>        -0.9812
     20 N4         -6.7269   -1.2489    0.1177 N.pl3     1 <0>        -1.2629
     21 H2          1.0039    1.9031    0.0027 H         1 <0>         0.0682
     22 H3         -0.5459    1.8868   -0.8726 H         1 <0>         0.0661
     23 H4         -0.5289    1.8773    0.9072 H         1 <0>         0.0712
     24 H5          2.4610    0.4148   -0.8245 H         1 <0>         0.3982
     25 H6          1.9221    0.9785   -3.9004 H         1 <0>         0.0530
     26 H7          2.4471   -0.4629   -4.8032 H         1 <0>         0.0634
     27 H8          0.9143   -0.4887   -3.8987 H         1 <0>         0.0780
     28 H9          4.6394   -0.4498   -1.7947 H         1 <0>         0.0622
     29 H10         4.6224   -0.4402   -3.5745 H         1 <0>         0.0745
     30 H11         4.0975    1.0012   -2.6718 H         1 <0>         0.0617
     31 H12         1.6750   -2.5254   -2.6676 H         1 <0>         0.0793
     32 H13         3.2078   -2.4996   -3.5721 H         1 <0>         0.0627
     33 H14         3.2248   -2.5092   -1.7922 H         1 <0>         0.0534
     34 H15        -2.2649    1.0465   -1.0803 H         1 <0>         0.0377
     35 H16        -1.5660   -0.2619   -2.0650 H         1 <0>         0.1160
     36 H17        -4.0922   -0.2891   -2.0036 H         1 <0>         0.0971
     37 H18        -3.3531   -1.7905   -1.3872 H         1 <0>         0.0809
     38 H19        -3.9801   -0.5071    2.1829 H         1 <0>         0.0994
     39 H20        -3.2791   -1.9344    1.3753 H         1 <0>         0.0801
     40 H21        -1.4541   -0.4794    2.1118 H         1 <0>         0.0903
     41 H22        -2.2010    0.9221    1.3070 H         1 <0>         0.0458
     42 H23        -6.3618   -2.1458    0.0614 H         1 <0>         0.4150
     43 H24        -7.6874   -1.1173    0.1503 H         1 <0>         0.4195
@<TRIPOS>BOND
     1    1    2 1
     2    1   21 1
     3    1   22 1
     4    1   23 1
     5    2    3 1
     6    2    4 1
     7    2   11 1
     8    4    5 2
     9    4    6 am
    10    6    7 1
    11    6   24 1
    12    7    8 1
    13    7    9 1
    14    7   10 1
    15    8   25 1
    16    8   26 1
    17    8   27 1
    18    9   28 1
    19    9   29 1
    20    9   30 1
    21   10   31 1
    22   10   32 1
    23   10   33 1
    24   11   16 1
    25   11   12 1
    26   12   13 1
    27   12   34 1
    28   12   35 1
    29   13   14 1
    30   13   36 1
    31   13   37 1
    32   14   15 1
    33   14   17 1
    34   15   16 1
    35   15   38 1
    36   15   39 1
    37   16   40 1
    38   16   41 1
    39   17   18 2
    40   17   19 2
    41   17   20 1
    42   20   42 1
    43   20   43 1
@<TRIPOS>MOLECULE
ZINC49138304
   34    34     0     0     0
SMALL
USER_CHARGES

@<TRIPOS>ATOM
      1 C1          0.4184    1.4591   -0.0222 C.3       1 <0>        -0.1734
      2 C2          0.2097   -0.0334   -0.0186 C.2       1 <0>         0.5197
      3 O1          0.3218   -0.6590    1.0143 O.2       1 <0>        -0.5429
      4 N1         -0.1016   -0.6730   -1.1634 N.am      1 <0>        -0.6047
      5 C3         -0.1238    0.0620   -2.4305 C.3       1 <0>         0.0795
      6 C4         -0.4177   -2.1033   -1.1407 C.3       1 <0>         0.0957
      7 C5         -1.8987   -2.2872   -0.9310 C.2       1 <0>         0.5009
      8 O2         -2.6192   -1.3188   -0.8122 O.2       1 <0>        -0.5242
      9 N2         -2.4225   -3.5278   -0.8755 N.am      1 <0>        -0.7302
     10 C6         -3.8622   -3.7065   -0.6716 C.3       1 <0>         0.1999
     11 C7         -4.1874   -5.1778   -0.6482 C.2       1 <0>        -0.1317
     12 C8         -4.2273   -6.0265    0.4079 C.2       1 <0>        -0.1678
     13 C9         -4.5547   -7.3518    0.1908 C.2       1 <0>        -0.0006
     14 C10        -4.8262   -7.7635   -1.0717 C.2       1 <0>        -0.7633
     15 S1         -4.6276   -6.2536   -2.0033 S.3       1 <0>         0.1950
     16 S2         -5.2671   -9.3706   -1.6441 S.o2      1 <0>         2.7387
     17 O3         -4.9047   -9.4264   -3.0170 O.2       1 <0>        -0.9533
     18 O4         -4.7679  -10.2940   -0.6863 O.2       1 <0>        -0.9521
     19 N3         -6.9188   -9.4750   -1.5860 N.pl3     1 <0>        -1.2478
     20 H1          1.4491    1.6811   -0.2986 H         1 <0>         0.0951
     21 H2         -0.2581    1.9188   -0.7426 H         1 <0>         0.0862
     22 H3          0.2151    1.8567    0.9722 H         1 <0>         0.0941
     23 H4          0.8838    0.1039   -2.8439 H         1 <0>         0.0627
     24 H5         -0.7842   -0.4456   -3.1335 H         1 <0>         0.0730
     25 H6         -0.4876    1.0747   -2.2567 H         1 <0>         0.0780
     26 H7         -0.1262   -2.5550   -2.0889 H         1 <0>         0.1121
     27 H8          0.1267   -2.5829   -0.3273 H         1 <0>         0.1182
     28 H9         -1.8463   -4.3022   -0.9705 H         1 <0>         0.4060
     29 H10        -4.1537   -3.2549    0.2766 H         1 <0>         0.0992
     30 H11        -4.4067   -3.2269   -1.4850 H         1 <0>         0.0912
     31 H12        -4.0063   -5.6726    1.4040 H         1 <0>         0.1502
     32 H13        -4.5934   -8.0489    1.0149 H         1 <0>         0.1546
     33 H14        -7.4418   -8.7199   -1.2742 H         1 <0>         0.4181
     34 H15        -7.3632  -10.2912   -1.8638 H         1 <0>         0.4241
@<TRIPOS>BOND
     1    1    2 1
     2    1   20 1
     3    1   21 1
     4    1   22 1
     5    2    3 2
     6    2    4 am
     7    4    5 1
     8    4    6 1
     9    5   23 1
    10    5   24 1
    11    5   25 1
    12    6    7 1
    13    6   26 1
    14    6   27 1
    15    7    8 2
    16    7    9 am
    17    9   10 1
    18    9   28 1
    19   10   11 1
    20   10   29 1
    21   10   30 1
    22   11   15 1
    23   11   12 2
    24   12   13 1
    25   12   31 1
    26   13   14 2
    27   13   32 1
    28   14   15 1
    29   14   16 1
    30   16   17 2
    31   16   18 2
    32   16   19 1
    33   19   33 1
    34   19   34 1
@<TRIPOS>MOLECULE
ZINC16899703
   43    44     0     0     0
SMALL
USER_CHARGES

@<TRIPOS>ATOM
      1 C1         -0.0184    1.5028    0.0103 C.3       1 <0>        -0.1190
      2 C2          0.0021   -0.0041    0.0020 C.ar      1 <0>        -0.0571
      3 C3          0.0058   -0.6875   -1.2001 C.ar      1 <0>        -0.1207
      4 C4          0.0245   -2.0685   -1.2108 C.ar      1 <0>        -0.0536
      5 C5          0.0401   -2.7705   -0.0132 C.ar      1 <0>         0.0891
      6 C6          0.0368   -2.0816    1.1921 C.ar      1 <0>        -0.0512
      7 C7          0.0229   -0.7004    1.1965 C.ar      1 <0>        -0.1203
      8 C8          0.0532   -2.8399    2.4943 C.3       1 <0>        -0.1164
      9 N1          0.0586   -4.1723   -0.0209 N.am      1 <0>        -0.5153
     10 C9         -1.0575   -4.9116   -0.0247 C.2       1 <0>         0.5272
     11 O1         -2.1886   -4.4756   -0.0224 O.2       1 <0>        -0.4549
     12 C10        -0.6834   -6.3778   -0.0329 C.3       1 <0>        -0.1315
     13 C11         0.8587   -6.3574   -0.0331 C.3       1 <0>        -0.0977
     14 H1          1.2485   -6.8344   -0.9323 H         1 <0>         0.1484
     15 C12         1.1939   -4.8818   -0.0308 C.2       1 <0>         0.5331
     16 O2          2.3130   -4.4159   -0.0346 O.2       1 <0>        -0.4471
     17 S1          1.5082   -7.1717    1.4520 S.3       1 <0>        -0.2141
     18 C13         3.3042   -7.1822    1.1969 C.3       1 <0>        -0.1069
     19 C14         3.9853   -7.8504    2.3929 C.3       1 <0>        -0.0279
     20 H2          3.6797   -7.3496    3.3115 H         1 <0>         0.1430
     21 C15         5.4811   -7.7500    2.2397 C.2       1 <0>         0.4935
     22 O3          6.0776   -6.7898    2.6965 O.co2     1 <0>        -0.6242
     23 O4          6.0948   -8.6290    1.6590 O.co2     1 <0>        -0.6597
     24 N2          3.5930   -9.2648    2.4524 N.4       1 <0>        -0.6144
     25 C16         0.0275   -2.8126   -2.5213 C.3       1 <0>        -0.1167
     26 H3          1.0042    1.8801    0.0026 H         1 <0>         0.0767
     27 H4         -0.5455    1.8639   -0.8728 H         1 <0>         0.0706
     28 H5         -0.5286    1.8543    0.9071 H         1 <0>         0.0708
     29 H6         -0.0064   -0.1408   -2.1314 H         1 <0>         0.1322
     30 H7          0.0241   -0.1639    2.1338 H         1 <0>         0.1326
     31 H8          1.0847   -3.0090    2.8032 H         1 <0>         0.0784
     32 H9         -0.4647   -2.2605    3.2587 H         1 <0>         0.0765
     33 H10        -0.4486   -3.7985    2.3629 H         1 <0>         0.0589
     34 H11        -1.0604   -6.8748    0.8610 H         1 <0>         0.1334
     35 H12        -1.0608   -6.8650   -0.9319 H         1 <0>         0.1401
     36 H13         3.5389   -7.7369    0.2885 H         1 <0>         0.1097
     37 H14         3.6633   -6.1576    1.1000 H         1 <0>         0.1364
     38 H15         3.8759   -9.7284    1.6021 H         1 <0>         0.4348
     39 H16         4.0422   -9.7055    3.2412 H         1 <0>         0.4344
     40 H17         1.0558   -2.9780   -2.8428 H         1 <0>         0.0767
     41 H18        -0.4727   -3.7728   -2.3951 H         1 <0>         0.0578
     42 H19        -0.4985   -2.2252   -3.2739 H         1 <0>         0.0776
     43 H20         2.5915   -9.3320    2.5550 H         1 <0>         0.4172
@<TRIPOS>BOND
     1    1    2 1
     2    1   26 1
     3    1   27 1
     4    1   28 1
     5    2    7 ar
     6    2    3 ar
     7    3    4 ar
     8    3   29 1
     9    4    5 ar
    10    4   25 1
    11    5    6 ar
    12    5    9 1
    13    6    7 ar
    14    6    8 1
    15    7   30 1
    16    8   31 1
    17    8   32 1
    18    8   33 1
    19    9   15 am
    20    9   10 am
    21   10   11 2
    22   10   12 1
    23   12   13 1
    24   12   34 1
    25   12   35 1
    26   13   14 1
    27   13   15 1
    28   13   17 1
    29   15   16 2
    30   17   18 1
    31   18   19 1
    32   18   36 1
    33   18   37 1
    34   19   20 1
    35   19   21 1
    36   19   24 1
    37   21   22 2
    38   21   23 1
    39   24   38 1
    40   24   39 1
    41   24   43 1
    42   25   40 1
    43   25   41 1
    44   25   42 1
@<TRIPOS>MOLECULE
ZINC03839053
   53    53     0     0     0
SMALL
USER_CHARGES
4-(allylcarbamoylamino)-N-(carbamoylmethyl)-N-methyl-1-(3-methylbut-2-enoyl)pyrrolidine-2-carboxamide
@<TRIPOS>ATOM
      1 C1         -5.5350    2.4207    4.9249 C.3       1 <0>        -0.1249
      2 C2         -4.0492    2.6672    4.9762 C.2       1 <0>        -0.0270
      3 C3         -3.2114    1.7985    4.4176 C.2       1 <0>        -0.2345
      4 C4         -3.7189    0.5230    3.8889 C.2       1 <0>         0.5645
      5 O1         -4.8822    0.2132    4.0612 O.2       1 <0>        -0.5019
      6 N1         -2.8946   -0.3022    3.2135 N.am      1 <0>        -0.6083
      7 C5         -1.4727   -0.0532    2.9347 C.3       1 <0>         0.0929
      8 C6         -0.9358   -1.2775    2.1637 C.3       1 <0>         0.1596
      9 H1         -0.9490   -1.0929    1.0895 H         1 <0>         0.1127
     10 C7         -1.9409   -2.3963    2.5448 C.3       1 <0>        -0.1285
     11 C8         -3.2693   -1.6043    2.6326 C.3       1 <0>         0.1249
     12 H2         -3.6960   -1.4678    1.6390 H         1 <0>         0.1026
     13 C9         -4.2468   -2.3176    3.5310 C.2       1 <0>         0.5244
     14 O2         -4.3558   -1.9864    4.6926 O.2       1 <0>        -0.5011
     15 N2         -4.9997   -3.3235    3.0435 N.am      1 <0>        -0.6021
     16 C10        -4.8680   -3.7235    1.6403 C.3       1 <0>         0.0773
     17 C11        -5.9500   -4.0168    3.9167 C.3       1 <0>         0.0992
     18 C12        -7.2865   -3.3233    3.8558 C.2       1 <0>         0.4966
     19 O3         -7.4311   -2.3461    3.1522 O.2       1 <0>        -0.5225
     20 N3         -8.3211   -3.7890    4.5832 N.am      1 <0>        -0.8575
     21 N4          0.4161   -1.6204    2.6122 N.am      1 <0>        -0.7369
     22 C13         1.4846   -1.0205    2.0512 C.2       1 <0>         0.7051
     23 O4          1.3264   -0.1910    1.1763 O.2       1 <0>        -0.5843
     24 N5          2.7286   -1.3400    2.4599 N.am      1 <0>        -0.7423
     25 C14         3.8901   -0.6879    1.8500 C.3       1 <0>         0.1653
     26 C15         5.1522   -1.2183    2.4799 C.2       1 <0>        -0.1818
     27 C16         6.0942   -1.7310    1.7277 C.2       1 <0>        -0.1602
     28 C17        -3.5128    3.8981    5.6604 C.3       1 <0>        -0.1278
     29 H3         -5.7925    1.9483    3.9770 H         1 <0>         0.0884
     30 H4         -5.8233    1.7660    5.7473 H         1 <0>         0.0790
     31 H5         -6.0640    3.3697    5.0135 H         1 <0>         0.0550
     32 H6         -2.1584    2.0294    4.3521 H         1 <0>         0.1229
     33 H7         -0.9265    0.0642    3.8706 H         1 <0>         0.0737
     34 H8         -1.3660    0.8444    2.3257 H         1 <0>         0.0815
     35 H9         -1.9910   -3.1582    1.7668 H         1 <0>         0.1016
     36 H10        -1.6858   -2.8394    3.5075 H         1 <0>         0.0896
     37 H11        -4.1043   -4.4963    1.5530 H         1 <0>         0.0622
     38 H12        -5.8212   -4.1126    1.2824 H         1 <0>         0.0737
     39 H13        -4.5805   -2.8593    1.0416 H         1 <0>         0.0749
     40 H14        -6.0610   -5.0494    3.5857 H         1 <0>         0.1086
     41 H15        -5.5792   -4.0018    4.9416 H         1 <0>         0.1131
     42 H16        -8.2055   -4.5706    5.1459 H         1 <0>         0.4005
     43 H17        -9.1814   -3.3426    4.5439 H         1 <0>         0.4023
     44 H18         0.5423   -2.2821    3.3101 H         1 <0>         0.3998
     45 H19         2.8548   -2.0017    3.1578 H         1 <0>         0.3982
     46 H20         3.9030   -0.8953    0.7800 H         1 <0>         0.0718
     47 H21         3.8284    0.3885    2.0107 H         1 <0>         0.0761
     48 H22         5.2800   -1.1759    3.5515 H         1 <0>         0.1156
     49 H23         6.9987   -2.1111    2.1791 H         1 <0>         0.1046
     50 H24         5.9664   -1.7734    0.6561 H         1 <0>         0.1014
     51 H25        -3.4386    4.7117    4.9389 H         1 <0>         0.0786
     52 H26        -4.1862    4.1881    6.4670 H         1 <0>         0.0738
     53 H27        -2.5255    3.6849    6.0703 H         1 <0>         0.0701
@<TRIPOS>BOND
     1    1    2 1
     2    1   29 1
     3    1   30 1
     4    1   31 1
     5    2    3 2
     6    2   28 1
     7    3    4 1
     8    3   32 1
     9    4    5 2
    10    4    6 am
    11    6   11 1
    12    6    7 1
    13    7    8 1
    14    7   33 1
    15    7   34 1
    16    8    9 1
    17    8   10 1
    18    8   21 1
    19   10   11 1
    20   10   35 1
    21   10   36 1
    22   11   12 1
    23   11   13 1
    24   13   14 2
    25   13   15 am
    26   15   16 1
    27   15   17 1
    28   16   37 1
    29   16   38 1
    30   16   39 1
    31   17   18 1
    32   17   40 1
    33   17   41 1
    34   18   19 2
    35   18   20 am
    36   20   42 1
    37   20   43 1
    38   21   22 am
    39   21   44 1
    40   22   23 2
    41   22   24 am
    42   24   25 1
    43   24   45 1
    44   25   26 1
    45   25   46 1
    46   25   47 1
    47   26   27 2
    48   26   48 1
    49   27   49 1
    50   27   50 1
    51   28   51 1
    52   28   52 1
    53   28   53 1
@<TRIPOS>MOLECULE
ZINC22066139
   44    45     0     0     0
SMALL
USER_CHARGES
methyl (2R,3S,4S,5S,6R)-3,4,5-trihydroxy-6-(4-oxo-6-propyl-2-thioxo-pyrimidin-1-yl)tetrahydropyran-2-carboxylate
@<TRIPOS>ATOM
      1 C1          3.5510   -1.3975   -3.2220 C.3       1 <0>        -0.1535
      2 C2          2.6831   -0.1392   -3.1573 C.3       1 <0>        -0.1316
      3 C3          1.2107   -0.5403   -3.0466 C.3       1 <0>        -0.0995
      4 C4          0.3558    0.6991   -2.9829 C.2       1 <0>         0.2132
      5 C5         -0.2734    1.1470   -4.0907 C.2       1 <0>        -0.3111
      6 C6         -1.0707    2.3140   -4.0057 C.2       1 <0>         0.5446
      7 O1         -1.6482    2.7369   -4.9910 O.2       1 <0>        -0.5383
      8 N1         -1.1849    2.9524   -2.8236 N.am      1 <0>        -0.6287
      9 H1         -1.7980    3.8625   -2.7470 H         1 <0>         0.4485
     10 C7         -0.5510    2.4807   -1.7339 C.2       1 <0>         0.1478
     11 S1         -0.7150    3.3017   -0.2406 S.2       1 <0>        -0.0230
     12 N2          0.2139    1.3760   -1.8028 N.pl3     1 <0>        -0.4810
     13 C8          0.8966    0.8902   -0.6011 C.3       1 <0>         0.3183
     14 H2          1.3540   -0.0855   -0.8220 H         1 <0>         0.1554
     15 C9          1.9224    1.9294   -0.1413 C.3       1 <0>         0.1112
     16 H3          2.5280    1.5534    0.6965 H         1 <0>         0.1059
     17 C10         1.1942    3.2249    0.2298 C.3       1 <0>        -0.0034
     18 H4          1.8975    4.0049    0.5569 H         1 <0>         0.1082
     19 C11         0.1514    2.9201    1.3096 C.3       1 <0>         0.1390
     20 H5         -0.3913    3.8273    1.6137 H         1 <0>         0.0940
     21 C12        -0.8060    1.8427    0.7938 C.3       1 <0>         0.0490
     22 H6         -1.3285    2.1646   -0.1191 H         1 <0>         0.0996
     23 O2         -0.0612    0.6763    0.4377 O.3       1 <0>        -0.3095
     24 C13        -1.7994    1.4950    1.8724 C.2       1 <0>         0.4729
     25 O3         -1.8030    0.3879    2.3563 O.2       1 <0>        -0.4756
     26 O4         -2.6803    2.4152    2.2955 O.3       1 <0>        -0.3536
     27 C14        -3.6074    2.0104    3.3371 C.3       1 <0>         0.0308
     28 O5          0.8083    2.4519    2.4892 O.3       1 <0>        -0.5738
     29 O6          0.5455    3.7568   -0.9270 O.3       1 <0>        -0.4109
     30 O7          2.8475    2.1878   -1.1994 O.3       1 <0>        -0.5799
     31 H7          4.6095   -1.1091   -3.3016 H         1 <0>         0.0602
     32 H8          3.2665   -1.9944   -4.1011 H         1 <0>         0.0556
     33 H9          3.4010   -1.9937   -2.3098 H         1 <0>         0.0557
     34 H10         2.9676    0.4577   -2.2782 H         1 <0>         0.0942
     35 H11         2.8331    0.4570   -4.0694 H         1 <0>         0.0681
     36 H12         0.9262   -1.1372   -3.9257 H         1 <0>         0.1002
     37 H13         1.0606   -1.1365   -2.1344 H         1 <0>         0.0865
     38 H14        -0.1702    0.6218   -5.0288 H         1 <0>         0.1579
     39 H15        -4.2680    2.8535    3.5879 H         1 <0>         0.1090
     40 H16        -3.0440    1.7072    4.2319 H         1 <0>         0.0693
     41 H17        -4.2126    1.1639    2.9806 H         1 <0>         0.0665
     42 H18         0.2178    2.1812    3.3769 H         1 <0>         0.4063
     43 H19        -0.0312    4.6906   -0.8536 H         1 <0>         0.2897
     44 H20         3.6622    2.9123   -1.0530 H         1 <0>         0.4158
@<TRIPOS>BOND
     1    1    2 1
     2    1   31 1
     3    1   32 1
     4    1   33 1
     5    2    3 1
     6    2   34 1
     7    2   35 1
     8    3    4 1
     9    3   36 1
    10    3   37 1
    11    4   12 1
    12    4    5 2
    13    5    6 1
    14    5   38 1
    15    6    7 2
    16    6    8 am
    17    8    9 1
    18    8   10 1
    19   10   11 2
    20   10   12 1
    21   12   13 1
    22   13   14 1
    23   13   23 1
    24   13   15 1
    25   15   16 1
    26   15   17 1
    27   15   30 1
    28   17   18 1
    29   17   19 1
    30   17   29 1
    31   19   20 1
    32   19   21 1
    33   19   28 1
    34   21   22 1
    35   21   23 1
    36   21   24 1
    37   24   25 2
    38   24   26 1
    39   26   27 1
    40   27   39 1
    41   27   40 1
    42   27   41 1
    43   28   42 1
    44   29   43 1
    45   30   44 1
@<TRIPOS>MOLECULE
ZINC40214646
   31    32     0     0     0
SMALL
USER_CHARGES

@<TRIPOS>ATOM
      1 C1         -0.0171    1.4117    0.0098 C.2       1 <0>        -0.0002
      2 C2          1.1629    2.0873    0.0022 C.2       1 <0>        -0.2353
      3 C3          2.3730    1.3685   -0.0132 C.2       1 <0>         0.5161
      4 O1          3.4341    1.9698   -0.0197 O.2       1 <0>        -0.5329
      5 N1          2.3681    0.0231   -0.0204 N.am      1 <0>        -0.5973
      6 H1          3.2107   -0.4573   -0.0311 H         1 <0>         0.4242
      7 C4          1.2124   -0.6668   -0.0127 C.2       1 <0>         0.2218
      8 C5          0.0021   -0.0041    0.0020 C.2       1 <0>        -0.2608
      9 C6         -1.2613   -0.7644    0.0105 C.2       1 <0>         0.5844
     10 O2         -1.2394   -1.9802    0.0037 O.2       1 <0>        -0.5385
     11 N2         -2.4405   -0.1117    0.0257 N.am      1 <0>        -0.7270
     12 C7         -3.6957   -0.8671    0.0341 C.3       1 <0>         0.2012
     13 C8         -4.8586    0.0913    0.0508 C.2       1 <0>        -0.1371
     14 C9         -5.5313    0.6355   -0.9926 C.2       1 <0>        -0.1661
     15 C10        -6.5789    1.5002   -0.7370 C.2       1 <0>        -0.0063
     16 C11        -6.9026    1.7784    0.5495 C.2       1 <0>        -0.7625
     17 S1         -5.7127    0.7983    1.4500 S.3       1 <0>         0.1994
     18 S2         -8.1726    2.8295    1.1717 S.o2      1 <0>         2.7372
     19 O3         -7.7704    3.2239    2.4763 O.2       1 <0>        -0.9530
     20 O4         -8.4600    3.7702    0.1462 O.2       1 <0>        -0.9486
     21 N3         -9.5308    1.9002    1.3558 N.pl3     1 <0>        -1.2453
     22 H2         -0.9550    1.9470    0.0261 H         1 <0>         0.1375
     23 H3          1.1716    3.1672    0.0075 H         1 <0>         0.1575
     24 H4          1.2325   -1.7466   -0.0187 H         1 <0>         0.1840
     25 H5         -2.4580    0.8581    0.0311 H         1 <0>         0.4044
     26 H6         -3.7509   -1.4899   -0.8587 H         1 <0>         0.1022
     27 H7         -3.7333   -1.4995    0.9211 H         1 <0>         0.0938
     28 H8         -5.2526    0.3972   -2.0085 H         1 <0>         0.1499
     29 H9         -7.1310    1.9477   -1.5502 H         1 <0>         0.1539
     30 H10       -10.1766    2.1166    2.0465 H         1 <0>         0.4248
     31 H11        -9.6807    1.1396    0.7729 H         1 <0>         0.4186
@<TRIPOS>BOND
     1    1    8 1
     2    1    2 2
     3    1   22 1
     4    2    3 1
     5    2   23 1
     6    3    4 2
     7    3    5 am
     8    5    6 1
     9    5    7 1
    10    7    8 2
    11    7   24 1
    12    8    9 1
    13    9   10 2
    14    9   11 am
    15   11   12 1
    16   11   25 1
    17   12   13 1
    18   12   26 1
    19   12   27 1
    20   13   17 1
    21   13   14 2
    22   14   15 1
    23   14   28 1
    24   15   16 2
    25   15   29 1
    26   16   17 1
    27   16   18 1
    28   18   19 2
    29   18   20 2
    30   18   21 1
    31   21   30 1
    32   21   31 1
@<TRIPOS>MOLECULE
ZINC48889882
   33    33     0     0     0
SMALL
USER_CHARGES

@<TRIPOS>ATOM
      1 C1         -0.0184    1.5028    0.0103 C.3       1 <0>        -0.0779
      2 C2          0.0021   -0.0041    0.0020 C.2       1 <0>         0.0653
      3 C3          0.0081   -0.8207   -1.1324 C.2       1 <0>        -0.1251
      4 C4          0.0287   -2.1186   -0.6492 C.2       1 <0>        -0.0021
      5 N1          0.0339   -2.0181    0.7141 N.pl3     1 <0>        -0.3671
      6 H1          0.0475   -2.7675    1.3298 H         1 <0>         0.4516
      7 N2          0.0231   -0.7799    1.0554 N.2       1 <0>        -0.2469
      8 C5          0.0419   -3.3563   -1.4434 C.2       1 <0>         0.5911
      9 O1          0.0348   -3.2995   -2.6584 O.2       1 <0>        -0.4831
     10 N3          0.0619   -4.5537   -0.8249 N.am      1 <0>        -0.5192
     11 N4          0.0744   -5.7328   -1.5815 N.am      1 <0>        -0.4850
     12 C6          0.0944   -6.9301   -0.9630 C.2       1 <0>         0.5090
     13 O2          0.1015   -6.9868    0.2491 O.2       1 <0>        -0.5176
     14 C7          0.1077   -8.1879   -1.7701 C.2       1 <0>         0.5227
     15 O3          0.1006   -8.1311   -2.9822 O.2       1 <0>        -0.5071
     16 N5          0.1277   -9.3852   -1.1516 N.am      1 <0>        -0.6902
     17 C8          0.1408  -10.6181   -1.9427 C.3       1 <0>         0.1343
     18 C9          1.5807  -10.9594   -2.3314 C.3       1 <0>        -0.1674
     19 C10        -0.4486  -11.7617   -1.1146 C.3       1 <0>        -0.1633
     20 Br1        -0.0090   -0.2706   -2.9415 Br        1 <0>         0.0305
     21 H2          1.0042    1.8801    0.0026 H         1 <0>         0.0852
     22 H3         -0.5455    1.8639   -0.8728 H         1 <0>         0.0853
     23 H4         -0.5286    1.8543    0.9071 H         1 <0>         0.0831
     24 H5          0.0675   -4.5990    0.1440 H         1 <0>         0.4288
     25 H6          0.0687   -5.6874   -2.5504 H         1 <0>         0.4490
     26 H7          0.1334   -9.4305   -0.1827 H         1 <0>         0.4141
     27 H8         -0.4553  -10.4777   -2.8444 H         1 <0>         0.0961
     28 H9          2.1769  -11.0999   -1.4298 H         1 <0>         0.0607
     29 H10         1.5905  -11.8768   -2.9200 H         1 <0>         0.0731
     30 H11         2.0006  -10.1447   -2.9213 H         1 <0>         0.0626
     31 H12        -1.4744  -11.5186   -0.8377 H         1 <0>         0.0651
     32 H13        -0.4388  -12.6791   -1.7032 H         1 <0>         0.0796
     33 H14         0.1476  -11.9022   -0.2130 H         1 <0>         0.0650
@<TRIPOS>BOND
     1    1    2 1
     2    1   21 1
     3    1   22 1
     4    1   23 1
     5    2    7 2
     6    2    3 1
     7    3    4 2
     8    3   20 1
     9    4    5 1
    10    4    8 1
    11    5    6 1
    12    5    7 1
    13    8    9 2
    14    8   10 am
    15   10   11 1
    16   10   24 1
    17   11   12 am
    18   11   25 1
    19   12   13 2
    20   12   14 1
    21   14   15 2
    22   14   16 am
    23   16   17 1
    24   16   26 1
    25   17   18 1
    26   17   19 1
    27   17   27 1
    28   18   28 1
    29   18   29 1
    30   18   30 1
    31   19   31 1
    32   19   32 1
    33   19   33 1
@<TRIPOS>MOLECULE
ZINC61808626
   32    32     0     0     0
SMALL
USER_CHARGES

@<TRIPOS>ATOM
      1 C1         -0.6965   -2.7904   -1.6629 C.ar      1 <0>        -0.0029
      2 C2         -0.6991   -4.1606   -1.8206 C.ar      1 <0>        -0.1092
      3 C3         -1.2898   -4.9694   -0.8641 C.ar      1 <0>         0.0306
      4 C4         -1.8814   -4.4083    0.2559 C.ar      1 <0>        -0.0502
      5 C5         -1.8851   -3.0399    0.4245 C.ar      1 <0>        -0.0281
      6 C6         -1.2911   -2.2193   -0.5364 C.ar      1 <0>        -0.1219
      7 C7         -1.2913   -0.7518   -0.3612 C.2       1 <0>         0.5804
      8 O1         -0.2553   -0.1261   -0.4744 O.2       1 <0>        -0.5039
      9 N1         -2.4401   -0.1074   -0.0760 N.am      1 <0>        -0.5705
     10 C8         -2.4548    1.3542    0.0237 C.3       1 <0>         0.0988
     11 C9         -2.6500    1.9492   -1.3471 C.2       1 <0>         0.5015
     12 O2         -2.7655    1.2239   -2.3122 O.2       1 <0>        -0.5344
     13 N2         -2.6963    3.2874   -1.5004 N.am      1 <0>        -0.8509
     14 C10        -3.6741   -0.8684    0.1343 C.3       1 <0>         0.0791
     15 C11        -3.8562   -1.1332    1.6067 C.2       1 <0>         0.4880
     16 O3         -3.0359   -0.7263    2.4020 O.2       1 <0>        -0.5233
     17 N3         -4.9306   -1.8222    2.0396 N.am      1 <0>        -0.8431
     18 N4         -2.5111   -5.2796    1.2733 N.pl3     1 <0>         0.0316
     19 O4         -3.0277   -4.7913    2.2512 O.2       1 <0>        -0.1520
     20 O5         -2.5089   -6.4797    1.1264 O.3       1 <0>        -0.1277
     21 Cl1        -1.2896   -6.6931   -1.0699 Cl        1 <0>         0.0083
     22 H1         -0.2316   -2.1610   -2.4072 H         1 <0>         0.1640
     23 H2         -0.2397   -4.6036   -2.6919 H         1 <0>         0.1690
     24 H3         -2.3466   -2.6037    1.2981 H         1 <0>         0.1663
     25 H4         -3.2716    1.6657    0.6747 H         1 <0>         0.1169
     26 H5         -1.5078    1.6996    0.4382 H         1 <0>         0.1236
     27 H6         -2.6040    3.8675   -0.7285 H         1 <0>         0.4044
     28 H7         -2.8220    3.6704   -2.3827 H         1 <0>         0.4057
     29 H8         -4.5226   -0.2953   -0.2394 H         1 <0>         0.1215
     30 H9         -3.6121   -1.8162   -0.4004 H         1 <0>         0.1128
     31 H10        -5.5866   -2.1476    1.4035 H         1 <0>         0.4041
     32 H11        -5.0478   -1.9927    2.9873 H         1 <0>         0.4116
@<TRIPOS>BOND
     1    1    6 ar
     2    1    2 ar
     3    1   22 1
     4    2    3 ar
     5    2   23 1
     6    3    4 ar
     7    3   21 1
     8    4    5 ar
     9    4   18 1
    10    5    6 ar
    11    5   24 1
    12    6    7 1
    13    7    8 2
    14    7    9 am
    15    9   10 1
    16    9   14 1
    17   10   11 1
    18   10   25 1
    19   10   26 1
    20   11   12 2
    21   11   13 am
    22   13   27 1
    23   13   28 1
    24   14   15 1
    25   14   29 1
    26   14   30 1
    27   15   16 2
    28   15   17 am
    29   17   31 1
    30   17   32 1
    31   18   19 2
    32   18   20 1
@<TRIPOS>MOLECULE
ZINC05729066
   29    30     0     0     0
SMALL
USER_CHARGES
(2R)-2-(2,6-diaminopyrimidin-4-yl)sulfanyl-2-phenyl-acetonitrile
@<TRIPOS>ATOM
      1 C1          3.9899    2.9457   -0.0198 C.ar      1 <0>        -0.1036
      2 C2          3.1439    3.2631    1.0264 C.ar      1 <0>        -0.1173
      3 C3          1.8471    2.7846    1.0362 C.ar      1 <0>        -0.0887
      4 C4          1.3959    1.9894   -0.0006 C.ar      1 <0>        -0.0880
      5 C5          2.2433    1.6680   -1.0444 C.ar      1 <0>        -0.0976
      6 C6          3.5389    2.1501   -1.0564 C.ar      1 <0>        -0.1154
      7 C7         -0.0179    1.4678    0.0101 C.3       1 <0>         0.0673
      8 H1         -0.5281    1.8193    0.9069 H         1 <0>         0.1486
      9 C8          0.0021   -0.0041    0.0020 C.1       1 <0>         0.2185
     10 N1          0.0175   -1.1399   -0.0042 N.1       1 <0>        -0.4019
     11 S1         -0.8933    2.0674   -1.4563 S.3       1 <0>         0.0190
     12 C9         -2.5104    1.4541   -1.1193 C.ar      1 <0>         0.2132
     13 C10        -3.5534    1.6860   -2.0125 C.ar      1 <0>        -0.3215
     14 C11        -4.8131    1.1821   -1.7047 C.ar      1 <0>         0.4925
     15 N2         -4.9793    0.4992   -0.5738 N.ar      1 <0>        -0.6288
     16 C12        -3.9643    0.2977    0.2527 C.ar      1 <0>         0.6231
     17 N3         -2.7504    0.7579   -0.0098 N.ar      1 <0>        -0.6113
     18 N4         -4.1764   -0.4171    1.4185 N.pl3     1 <0>        -0.8180
     19 N5         -5.8813    1.3887   -2.5638 N.pl3     1 <0>        -0.8321
     20 H2          5.0031    3.3195   -0.0275 H         1 <0>         0.1276
     21 H3          3.4963    3.8847    1.8362 H         1 <0>         0.1301
     22 H4          1.1863    3.0324    1.8537 H         1 <0>         0.1312
     23 H5          1.8922    1.0431   -1.8522 H         1 <0>         0.1270
     24 H6          4.1997    1.9023   -1.8739 H         1 <0>         0.1289
     25 H7         -3.3882    2.2435   -2.9226 H         1 <0>         0.1441
     26 H8         -5.0596   -0.7631    1.6214 H         1 <0>         0.4153
     27 H9         -3.4419   -0.5721    2.0328 H         1 <0>         0.4148
     28 H10        -5.7531    1.8875   -3.3858 H         1 <0>         0.4145
     29 H11        -6.7569    1.0346   -2.3429 H         1 <0>         0.4087
@<TRIPOS>BOND
     1    1    6 ar
     2    1    2 ar
     3    1   20 1
     4    2    3 ar
     5    2   21 1
     6    3    4 ar
     7    3   22 1
     8    4    5 ar
     9    4    7 1
    10    5    6 ar
    11    5   23 1
    12    6   24 1
    13    7    8 1
    14    7    9 1
    15    7   11 1
    16    9   10 3
    17   11   12 1
    18   12   17 ar
    19   12   13 ar
    20   13   14 ar
    21   13   25 1
    22   14   15 ar
    23   14   19 1
    24   15   16 ar
    25   16   17 ar
    26   16   18 1
    27   18   26 1
    28   18   27 1
    29   19   28 1
    30   19   29 1
@<TRIPOS>MOLECULE
ZINC22145361
   34    35     0     0     0
SMALL
USER_CHARGES
1-(4-amino-2-methoxy-phenyl)-3-(3-chlorophenyl)urea
@<TRIPOS>ATOM
      1 C1          4.7167    4.1436    0.3341 C.3       1 <0>         0.0277
      2 O1          3.4752    3.4439    0.2281 O.3       1 <0>        -0.3203
      3 C2          3.5282    2.0854    0.2519 C.ar      1 <0>         0.1469
      4 C3          4.7475    1.4412    0.3800 C.ar      1 <0>        -0.2747
      5 C4          4.7996    0.0539    0.3988 C.ar      1 <0>         0.2477
      6 C5          3.6296   -0.6871    0.2942 C.ar      1 <0>        -0.2175
      7 C6          2.4121   -0.0456    0.1717 C.ar      1 <0>        -0.0448
      8 C7          2.3558    1.3400    0.1530 C.ar      1 <0>         0.0768
      9 N1          1.1181    1.9910    0.0285 N.am      1 <0>        -0.6779
     10 C8          0.0805    1.3599   -0.5558 C.2       1 <0>         0.7077
     11 O2          0.2424    0.2683   -1.0667 O.2       1 <0>        -0.5661
     12 N2         -1.1354    1.9410   -0.5788 N.am      1 <0>        -0.6962
     13 C9         -2.2325    1.2475   -1.1018 C.ar      1 <0>         0.1842
     14 C10        -2.0642    0.3936   -2.1843 C.ar      1 <0>        -0.1184
     15 C11        -3.1476   -0.2937   -2.6953 C.ar      1 <0>        -0.0874
     16 C12        -4.4016   -0.1245   -2.1376 C.ar      1 <0>        -0.1288
     17 C13        -4.5741    0.7293   -1.0624 C.ar      1 <0>        -0.0159
     18 C14        -3.4922    1.4160   -0.5433 C.ar      1 <0>        -0.1424
     19 Cl1        -6.1501    0.9388   -0.3652 Cl        1 <0>        -0.0672
     20 N3          6.0313   -0.5978    0.5227 N.pl3     1 <0>        -0.8977
     21 H1          4.5307    5.2273    0.3017 H         1 <0>         0.1011
     22 H2          5.3708    3.8586   -0.5031 H         1 <0>         0.0561
     23 H3          5.2041    3.8835    1.2853 H         1 <0>         0.0562
     24 H4          5.6573    2.0174    0.4610 H         1 <0>         0.1279
     25 H5          3.6716   -1.7662    0.3082 H         1 <0>         0.1229
     26 H6          1.5035   -0.6236    0.0901 H         1 <0>         0.1518
     27 H7          0.9953    3.0162    0.4079 H         1 <0>         0.4316
     28 H8         -1.2653    2.9604   -0.1864 H         1 <0>         0.4322
     29 H9         -1.0861    0.2641   -2.6235 H         1 <0>         0.1468
     30 H10        -3.0161   -0.9605   -3.5346 H         1 <0>         0.1355
     31 H11        -5.2480   -0.6595   -2.5421 H         1 <0>         0.1338
     32 H12        -3.6269    2.0824    0.2959 H         1 <0>         0.1355
     33 H13         6.0729   -1.6969    0.5376 H         1 <0>         0.4185
     34 H14         6.9581   -0.0111    0.6052 H         1 <0>         0.4145
@<TRIPOS>BOND
     1    1    2 1
     2    1   21 1
     3    1   22 1
     4    1   23 1
     5    2    3 1
     6    3    8 ar
     7    3    4 ar
     8    4    5 ar
     9    4   24 1
    10    5    6 ar
    11    5   20 1
    12    6    7 ar
    13    6   25 1
    14    7    8 ar
    15    7   26 1
    16    8    9 1
    17    9   10 am
    18    9   27 1
    19   10   11 2
    20   10   12 am
    21   12   13 1
    22   12   28 1
    23   13   18 ar
    24   13   14 ar
    25   14   15 ar
    26   14   29 1
    27   15   16 ar
    28   15   30 1
    29   16   17 ar
    30   16   31 1
    31   17   18 ar
    32   17   19 1
    33   18   32 1
    34   20   33 1
    35   20   34 1
@<TRIPOS>MOLECULE
ZINC40372195
   44    45     0     0     0
SMALL
USER_CHARGES

@<TRIPOS>ATOM
      1 C1         -1.2968    1.5272    0.7026 C.3       1 <0>        -0.1194
      2 C2         -1.0381    0.0473    0.5843 C.ar      1 <0>        -0.0588
      3 C3         -0.8231   -0.5170   -0.6606 C.ar      1 <0>        -0.1291
      4 C4         -0.5857   -1.8711   -0.7758 C.ar      1 <0>        -0.0396
      5 C5         -0.5627   -2.6722    0.3669 C.ar      1 <0>        -0.1392
      6 C6         -0.7804   -2.0966    1.6197 C.ar      1 <0>        -0.0422
      7 C7         -1.0111   -0.7403    1.7216 C.ar      1 <0>        -0.1293
      8 C8         -0.7575   -2.9539    2.8589 C.3       1 <0>        -0.1204
      9 C9         -0.3094   -4.1241    0.2508 C.2       1 <0>         0.5706
     10 O1          0.8284   -4.5486    0.3032 O.2       1 <0>        -0.5033
     11 N1         -1.3400   -4.9770    0.0870 N.am      1 <0>        -0.7202
     12 C10        -1.0832   -6.4016   -0.1381 C.3       1 <0>         0.2358
     13 C11        -2.4023   -7.1310   -0.4666 C.3       1 <0>        -0.1212
     14 C12        -2.4392   -7.1703   -2.0146 C.3       1 <0>        -0.1231
     15 C13        -0.9562   -7.4196   -2.3856 C.3       1 <0>        -0.1257
     16 C14        -0.1638   -6.5852   -1.3582 C.3       1 <0>        -0.1215
     17 C15        -0.4462   -7.0104    1.0845 C.2       1 <0>         0.3680
     18 N2          0.6607   -7.6676    0.9767 N.2       1 <0>        -0.3985
     19 O2          1.2592   -8.2397    2.1254 O.3       1 <0>        -0.4290
     20 N3         -1.0442   -6.8661    2.3167 N.pl3     1 <0>        -0.8690
     21 C16        -0.3521   -2.4840   -2.1326 C.3       1 <0>        -0.1230
     22 H1         -0.3498    2.0530    0.8242 H         1 <0>         0.0748
     23 H2         -1.7962    1.8819   -0.1990 H         1 <0>         0.0696
     24 H3         -1.9315    1.7170    1.5682 H         1 <0>         0.0693
     25 H4         -0.8414    0.1040   -1.5440 H         1 <0>         0.1286
     26 H5         -1.1754   -0.2929    2.6908 H         1 <0>         0.1279
     27 H6          0.2570   -2.9921    3.2556 H         1 <0>         0.0767
     28 H7         -1.4248   -2.5276    3.6080 H         1 <0>         0.0737
     29 H8         -1.0883   -3.9621    2.6094 H         1 <0>         0.0636
     30 H9         -2.2519   -4.6476    0.1180 H         1 <0>         0.4045
     31 H10        -2.3908   -8.1420   -0.0595 H         1 <0>         0.0876
     32 H11        -3.2540   -6.5721   -0.0788 H         1 <0>         0.0798
     33 H12        -3.0680   -7.9887   -2.3653 H         1 <0>         0.0756
     34 H13        -2.7832   -6.2176   -2.4171 H         1 <0>         0.0722
     35 H14        -0.7112   -8.4772   -2.2884 H         1 <0>         0.0710
     36 H15        -0.7526   -7.0714   -3.3983 H         1 <0>         0.0713
     37 H16         0.0913   -5.6142   -1.7829 H         1 <0>         0.0731
     38 H17         0.7428   -7.1153   -1.0663 H         1 <0>         0.1027
     39 H18         2.0839   -8.7115    1.9456 H         1 <0>         0.3991
     40 H19        -1.8348   -6.3119    2.4102 H         1 <0>         0.3917
     41 H20        -0.6747   -7.3186    3.0911 H         1 <0>         0.4063
     42 H21         0.7132   -2.4632   -2.3622 H         1 <0>         0.0780
     43 H22        -0.7033   -3.5159   -2.1304 H         1 <0>         0.0670
     44 H23        -0.8975   -1.9163   -2.8865 H         1 <0>         0.0741
@<TRIPOS>BOND
     1    1    2 1
     2    1   22 1
     3    1   23 1
     4    1   24 1
     5    2    7 ar
     6    2    3 ar
     7    3    4 ar
     8    3   25 1
     9    4    5 ar
    10    4   21 1
    11    5    6 ar
    12    5    9 1
    13    6    7 ar
    14    6    8 1
    15    7   26 1
    16    8   27 1
    17    8   28 1
    18    8   29 1
    19    9   10 2
    20    9   11 am
    21   11   12 1
    22   11   30 1
    23   12   16 1
    24   12   13 1
    25   12   17 1
    26   13   14 1
    27   13   31 1
    28   13   32 1
    29   14   15 1
    30   14   33 1
    31   14   34 1
    32   15   16 1
    33   15   35 1
    34   15   36 1
    35   16   37 1
    36   16   38 1
    37   17   18 2
    38   17   20 1
    39   18   19 1
    40   19   39 1
    41   20   40 1
    42   20   41 1
    43   21   42 1
    44   21   43 1
    45   21   44 1
@<TRIPOS>MOLECULE
ZINC40769916
   34    35     0     0     0
SMALL
USER_CHARGES

@<TRIPOS>ATOM
      1 C1         -0.2892    0.9983   -1.8191 C.3       1 <0>         0.0308
      2 O1         -0.1804   -0.2913   -1.2131 O.3       1 <0>        -0.3196
      3 C2         -1.2936   -0.7847   -0.6072 C.ar      1 <0>         0.0676
      4 C3         -2.4649   -0.0463   -0.6019 C.ar      1 <0>        -0.1830
      5 C4         -3.6001   -0.5518    0.0171 C.ar      1 <0>         0.1331
      6 C5         -3.5613   -1.7967    0.6304 C.ar      1 <0>        -0.0974
      7 C6         -2.3931   -2.5348    0.6264 C.ar      1 <0>        -0.1508
      8 C7         -1.2585   -2.0361    0.0037 C.ar      1 <0>         0.1867
      9 N1         -0.0753   -2.7882   -0.0054 N.pl3     1 <0>        -0.8746
     10 N2         -4.7860    0.1954    0.0233 N.am      1 <0>        -0.6756
     11 C8         -5.9770   -0.4299   -0.0613 C.2       1 <0>         0.7071
     12 O2         -6.0272   -1.6448   -0.0597 O.2       1 <0>        -0.5533
     13 N3         -7.1122    0.2914   -0.1478 N.am      1 <0>        -0.6809
     14 C9         -8.3542   -0.3544   -0.1396 C.ar      1 <0>         0.1729
     15 C10        -8.4960   -1.5976   -0.7415 C.ar      1 <0>        -0.1083
     16 C11        -9.7225   -2.2326   -0.7314 C.ar      1 <0>        -0.0951
     17 C12       -10.8093   -1.6319   -0.1227 C.ar      1 <0>        -0.1220
     18 C13       -10.6725   -0.3938    0.4774 C.ar      1 <0>        -0.0922
     19 C14        -9.4464    0.2446    0.4759 C.ar      1 <0>        -0.0654
     20 Cl1        -9.2731    1.7956    1.2362 Cl        1 <0>        -0.0664
     21 H1          0.6671    1.2721   -2.2649 H         1 <0>         0.0991
     22 H2         -1.0566    0.9726   -2.5928 H         1 <0>         0.0535
     23 H3         -0.5610    1.7338   -1.0620 H         1 <0>         0.0536
     24 H4         -2.4953    0.9223   -1.0785 H         1 <0>         0.1305
     25 H5         -4.4452   -2.1886    1.1115 H         1 <0>         0.1426
     26 H6         -2.3649   -3.5029    1.1043 H         1 <0>         0.1321
     27 H7          0.7192   -2.4372   -0.4372 H         1 <0>         0.4025
     28 H8         -0.0513   -3.6596    0.4201 H         1 <0>         0.3985
     29 H9         -4.7496    1.1625    0.0886 H         1 <0>         0.4066
     30 H10        -7.0686    1.2581   -0.2157 H         1 <0>         0.4098
     31 H11        -7.6480   -2.0675   -1.2175 H         1 <0>         0.1516
     32 H12        -9.8331   -3.1994   -1.1998 H         1 <0>         0.1339
     33 H13       -11.7671   -2.1308   -0.1163 H         1 <0>         0.1343
     34 H14       -11.5233    0.0730    0.9514 H         1 <0>         0.1378
@<TRIPOS>BOND
     1    1    2 1
     2    1   21 1
     3    1   22 1
     4    1   23 1
     5    2    3 1
     6    3    8 ar
     7    3    4 ar
     8    4    5 ar
     9    4   24 1
    10    5    6 ar
    11    5   10 1
    12    6    7 ar
    13    6   25 1
    14    7    8 ar
    15    7   26 1
    16    8    9 1
    17    9   27 1
    18    9   28 1
    19   10   11 am
    20   10   29 1
    21   11   12 2
    22   11   13 am
    23   13   14 1
    24   13   30 1
    25   14   19 ar
    26   14   15 ar
    27   15   16 ar
    28   15   31 1
    29   16   17 ar
    30   16   32 1
    31   17   18 ar
    32   17   33 1
    33   18   19 ar
    34   18   34 1
    35   19   20 1
@<TRIPOS>MOLECULE
ZINC51994483
   36    37     0     0     0
SMALL
USER_CHARGES

@<TRIPOS>ATOM
      1 C1          0.8734    1.7351    1.2443 C.ar      1 <0>        -0.0491
      2 C2          0.7598    0.8329    0.2044 C.ar      1 <0>        -0.1841
      3 C3          1.8512    0.0565   -0.1621 C.ar      1 <0>         0.3054
      4 C4          3.0549    0.1891    0.5182 C.ar      1 <0>        -0.7326
      5 C5          3.1639    1.0923    1.5571 C.ar      1 <0>        -0.0106
      6 C6          2.0741    1.8655    1.9210 C.ar      1 <0>         0.0248
      7 F1          2.1831    2.7488    2.9374 F         1 <0>        -0.1379
      8 S1          4.4417   -0.7949    0.0562 S.o2      1 <0>         2.6966
      9 O1          5.5196   -0.3951    0.8914 O.2       1 <0>        -0.9409
     10 O2          3.9837   -2.1386   -0.0056 O.2       1 <0>        -0.9590
     11 N1          4.8548   -0.3642   -1.4885 N.pl3     1 <0>        -1.1080
     12 C7          5.3368    0.9909   -1.7670 C.3       1 <0>         0.1634
     13 H1          5.4377    1.5402   -0.8310 H         1 <0>         0.0985
     14 C8          4.3383    1.7107   -2.6757 C.3       1 <0>        -0.1305
     15 C9          4.8418    3.1259   -2.9666 C.3       1 <0>        -0.1222
     16 C10         6.2022    3.0503   -3.6627 C.3       1 <0>        -0.1205
     17 C11         7.2007    2.3305   -2.7540 C.3       1 <0>        -0.1540
     18 C12         6.6972    0.9153   -2.4631 C.3       1 <0>         0.0989
     19 H2          6.5964    0.3660   -3.3991 H         1 <0>         0.0608
     20 O3          7.6298    0.2430   -1.6144 O.3       1 <0>        -0.5548
     21 N2          1.7384   -0.8577   -1.2140 N.pl3     1 <0>        -0.8623
     22 H3          0.0261    2.3424    1.5268 H         1 <0>         0.1447
     23 H4         -0.1772    0.7312   -0.3229 H         1 <0>         0.1418
     24 H5          4.0996    1.1954    2.0866 H         1 <0>         0.1550
     25 H6          4.7776   -1.0091   -2.2089 H         1 <0>         0.4161
     26 H7          4.2375    1.1614   -3.6118 H         1 <0>         0.0733
     27 H8          3.3692    1.7646   -2.1798 H         1 <0>         0.0749
     28 H9          4.1304    3.6387   -3.6140 H         1 <0>         0.0714
     29 H10         4.9426    3.6752   -2.0306 H         1 <0>         0.0681
     30 H11         6.1013    2.5010   -4.5987 H         1 <0>         0.0654
     31 H12         6.5608    4.0585   -3.8699 H         1 <0>         0.0697
     32 H13         8.1698    2.2766   -3.2498 H         1 <0>         0.0715
     33 H14         7.3015    2.8798   -1.8179 H         1 <0>         0.0758
     34 H15         8.5158    0.1586   -1.9925 H         1 <0>         0.3789
     35 H16         0.8843   -0.9860   -1.6555 H         1 <0>         0.4117
     36 H17         2.5143   -1.3635   -1.5022 H         1 <0>         0.3997
@<TRIPOS>BOND
     1    1    6 ar
     2    1    2 ar
     3    1   22 1
     4    2    3 ar
     5    2   23 1
     6    3    4 ar
     7    3   21 1
     8    4    5 ar
     9    4    8 1
    10    5    6 ar
    11    5   24 1
    12    6    7 1
    13    8    9 2
    14    8   10 2
    15    8   11 1
    16   11   12 1
    17   11   25 1
    18   12   13 1
    19   12   18 1
    20   12   14 1
    21   14   15 1
    22   14   26 1
    23   14   27 1
    24   15   16 1
    25   15   28 1
    26   15   29 1
    27   16   17 1
    28   16   30 1
    29   16   31 1
    30   17   18 1
    31   17   32 1
    32   17   33 1
    33   18   19 1
    34   18   20 1
    35   20   34 1
    36   21   35 1
    37   21   36 1
@<TRIPOS>MOLECULE
ZINC07460397
   41    41     0     0     0
SMALL
USER_CHARGES
(2S)-N-carbamoyl-2-(cyclooctylamino)propanamide
@<TRIPOS>ATOM
      1 C1          0.9384   -1.1623   -0.4051 C.3       1 <0>        -0.1817
      2 C2         -0.3877   -1.5760    0.2362 C.3       1 <0>         0.0086
      3 H1         -0.7802   -2.4547   -0.2754 H         1 <0>         0.1702
      4 C3         -0.1627   -1.9002    1.6907 C.2       1 <0>         0.5156
      5 O1         -0.7472   -1.2742    2.5487 O.2       1 <0>        -0.4507
      6 N1          0.6883   -2.8861    2.0375 N.am      1 <0>        -0.6751
      7 C4          0.8895   -3.1760    3.3383 C.2       1 <0>         0.6966
      8 O2          0.3035   -2.5484    4.1984 O.2       1 <0>        -0.5192
      9 N2          1.7404   -4.1619    3.6851 N.am      1 <0>        -0.8448
     10 C5         -2.0247   -0.4931   -1.1816 C.3       1 <0>         0.0007
     11 C6         -2.4733    0.9237   -1.5461 C.3       1 <0>        -0.1377
     12 C7         -2.8060    0.9849   -3.0381 C.3       1 <0>        -0.1288
     13 C8         -1.7250    0.2504   -3.8332 C.3       1 <0>        -0.1318
     14 C9         -2.3244   -1.0056   -4.4691 C.3       1 <0>        -0.1308
     15 C10        -2.4975   -2.0850   -3.3986 C.3       1 <0>        -0.1312
     16 C11        -3.7110   -1.7512   -2.5289 C.3       1 <0>        -0.1291
     17 C12        -3.2457   -1.4125   -1.1112 C.3       1 <0>        -0.1400
     18 H2          1.6778   -1.9480   -0.2499 H         1 <0>         0.1119
     19 H3          0.7922   -1.0069   -1.4740 H         1 <0>         0.1012
     20 H4          1.2900   -0.2372    0.0518 H         1 <0>         0.0946
     21 H5          1.1559   -3.3869    1.3510 H         1 <0>         0.4188
     22 H6          2.2081   -4.6628    2.9986 H         1 <0>         0.4052
     23 H7          1.8852   -4.3706    4.6213 H         1 <0>         0.4306
     24 H8         -1.3350   -0.8624   -1.9405 H         1 <0>         0.1608
     25 H9         -3.3579    1.1854   -0.9655 H         1 <0>         0.0937
     26 H10        -1.6712    1.6274   -1.3235 H         1 <0>         0.0862
     27 H11        -2.8483    2.0260   -3.3584 H         1 <0>         0.0841
     28 H12        -3.7717    0.5113   -3.2146 H         1 <0>         0.0880
     29 H13        -0.9120   -0.0333   -3.1649 H         1 <0>         0.0601
     30 H14        -1.3408    0.9055   -4.6151 H         1 <0>         0.0762
     31 H15        -1.6574   -1.3715   -5.2497 H         1 <0>         0.0717
     32 H16        -3.2949   -0.7655   -4.9034 H         1 <0>         0.0760
     33 H17        -1.6040   -2.1254   -2.7756 H         1 <0>         0.0585
     34 H18        -2.6496   -3.0517   -3.8787 H         1 <0>         0.0761
     35 H19        -4.3814   -2.6100   -2.4957 H         1 <0>         0.0835
     36 H20        -4.2372   -0.8958   -2.9526 H         1 <0>         0.0891
     37 H21        -2.9797   -2.3304   -0.5871 H         1 <0>         0.0814
     38 H22        -4.0500   -0.9081   -0.5756 H         1 <0>         0.0947
     39 N3         -1.3531   -0.4656    0.1315 N.4       1 <0>        -0.5071
     40 H23        -0.8562    0.4265    0.2391 H         1 <0>         0.4355
     41 H24        -2.0566   -0.5572    0.8737 H         1 <0>         0.4387
@<TRIPOS>BOND
     1    1    2 1
     2    1   18 1
     3    1   19 1
     4    1   20 1
     5    2    3 1
     6    2    4 1
     7    2   39 1
     8    4    5 2
     9    4    6 am
    10    6    7 am
    11    6   21 1
    12    7    8 2
    13    7    9 am
    14    9   22 1
    15    9   23 1
    16   10   17 1
    17   10   11 1
    18   10   24 1
    19   10   39 1
    20   11   12 1
    21   11   25 1
    22   11   26 1
    23   12   13 1
    24   12   27 1
    25   12   28 1
    26   13   14 1
    27   13   29 1
    28   13   30 1
    29   14   15 1
    30   14   31 1
    31   14   32 1
    32   15   16 1
    33   15   33 1
    34   15   34 1
    35   16   17 1
    36   16   35 1
    37   16   36 1
    38   17   37 1
    39   17   38 1
    40   39   40 1
    41   39   41 1
@<TRIPOS>MOLECULE
ZINC37806943
   41    41     0     0     0
SMALL
USER_CHARGES

@<TRIPOS>ATOM
      1 C1         -1.4289   -0.3701   -0.0118 C.3       1 <0>        -0.1679
      2 C2         -0.2525   -1.2748    0.3606 C.3       1 <0>        -0.1021
      3 H1          0.1939   -1.6821   -0.5465 H         1 <0>         0.0971
      4 C3         -0.7502   -2.4211    1.2433 C.3       1 <0>        -0.1557
      5 C4          0.4262   -3.3258    1.6157 C.3       1 <0>        -0.1243
      6 C5          1.4735   -2.5123    2.3787 C.3       1 <0>        -0.1150
      7 C6          1.9712   -1.3659    1.4960 C.3       1 <0>        -0.1368
      8 C7          0.7948   -0.4613    1.1236 C.3       1 <0>         0.1536
      9 H2          1.1494    0.3554    0.4948 H         1 <0>         0.0916
     10 N1          0.1948    0.0862    2.3428 N.am      1 <0>        -0.5707
     11 C8         -1.1541   -0.3224    2.7426 C.3       1 <0>         0.0180
     12 C9          0.8836    0.9657    3.0967 C.2       1 <0>         0.4986
     13 O1          2.0003    1.3040    2.7657 O.2       1 <0>        -0.5169
     14 C10         0.2664    1.5289    4.3508 C.3       1 <0>         0.0251
     15 H3         -0.7881    1.7406    4.1734 H         1 <0>         0.1717
     16 C11         0.3984    0.5113    5.4856 C.3       1 <0>        -0.1710
     17 C12        -0.3255    1.0217    6.7048 C.2       1 <0>         0.5174
     18 O2         -0.8913    2.0939    6.6696 O.2       1 <0>        -0.5542
     19 N2         -0.3441    0.2867    7.8344 N.am      1 <0>        -0.8292
     20 N3          0.9590    2.7698    4.7228 N.4       1 <0>        -0.6190
     21 H4         -1.2641    0.0503   -1.0039 H         1 <0>         0.0649
     22 H5         -2.3497   -0.9534   -0.0127 H         1 <0>         0.0695
     23 H6         -1.5110    0.4372    0.7159 H         1 <0>         0.0622
     24 H7         -1.1967   -2.0138    2.1504 H         1 <0>         0.0906
     25 H8         -1.4964   -3.0007    0.6997 H         1 <0>         0.0727
     26 H9          0.0716   -4.1425    2.2445 H         1 <0>         0.0668
     27 H10         0.8726   -3.7331    0.7086 H         1 <0>         0.0669
     28 H11         1.0270   -2.1049    3.2858 H         1 <0>         0.0521
     29 H12         2.3116   -3.1568    2.6440 H         1 <0>         0.0672
     30 H13         2.7173   -0.7864    2.0396 H         1 <0>         0.0769
     31 H14         2.4176   -1.7733    0.5889 H         1 <0>         0.0826
     32 H15        -1.0881   -1.1312    3.4702 H         1 <0>         0.0754
     33 H16        -1.6736    0.5259    3.1884 H         1 <0>         0.0711
     34 H17        -1.7044   -0.6658    1.8665 H         1 <0>         0.1335
     35 H18        -0.0379   -0.4380    5.1749 H         1 <0>         0.1463
     36 H19         1.4523    0.3664    5.7229 H         1 <0>         0.1324
     37 H20         0.1084   -0.5708    7.8626 H         1 <0>         0.4134
     38 H21        -0.8101    0.6153    8.6192 H         1 <0>         0.4194
     39 H22         0.8719    3.4410    3.9745 H         1 <0>         0.4418
     40 H23         0.5457    3.1469    5.5625 H         1 <0>         0.4464
     41 H24         1.9351    2.5739    4.8871 H         1 <0>         0.4377
@<TRIPOS>BOND
     1    1    2 1
     2    1   21 1
     3    1   22 1
     4    1   23 1
     5    2    3 1
     6    2    8 1
     7    2    4 1
     8    4    5 1
     9    4   24 1
    10    4   25 1
    11    5    6 1
    12    5   26 1
    13    5   27 1
    14    6    7 1
    15    6   28 1
    16    6   29 1
    17    7    8 1
    18    7   30 1
    19    7   31 1
    20    8    9 1
    21    8   10 1
    22   10   11 1
    23   10   12 am
    24   11   32 1
    25   11   33 1
    26   11   34 1
    27   12   13 2
    28   12   14 1
    29   14   15 1
    30   14   16 1
    31   14   20 1
    32   16   17 1
    33   16   35 1
    34   16   36 1
    35   17   18 2
    36   17   19 am
    37   19   37 1
    38   19   38 1
    39   20   39 1
    40   20   40 1
    41   20   41 1
@<TRIPOS>MOLECULE
ZINC42169910
   44    45     0     0     0
SMALL
USER_CHARGES

@<TRIPOS>ATOM
      1 C1         -0.0189    1.5389    0.0105 C.3       1 <0>        -0.1428
      2 C2          1.4877    1.9090   -0.0019 C.3       1 <0>        -0.1392
      3 C3          2.0771    0.7912   -0.8979 C.3       1 <0>         0.0453
      4 H1          1.9393    1.0367   -1.9509 H         1 <0>         0.1512
      5 N1          1.3058   -0.4202   -0.5467 N.4       1 <0>        -0.5114
      6 C4          0.0021   -0.0041    0.0020 C.3       1 <0>        -0.0105
      7 C5          3.5618    0.5883   -0.5891 C.3       1 <0>        -0.1658
      8 C6          4.1430   -0.4138   -1.5530 C.2       1 <0>         0.5054
      9 O1          3.4390   -0.9163   -2.4032 O.2       1 <0>        -0.5519
     10 N2          5.4451   -0.7516   -1.4702 N.am      1 <0>        -0.5940
     11 C7          6.3091   -0.1560   -0.4418 C.3       1 <0>         0.0964
     12 C8          6.9938   -1.2818    0.3395 C.3       1 <0>        -0.1357
     13 C9          7.7249   -2.2045   -0.6384 C.3       1 <0>        -0.1221
     14 C10         6.7155   -2.8308   -1.6033 C.3       1 <0>        -0.1113
     15 H2          5.9683   -3.3872   -1.0374 H         1 <0>         0.0815
     16 C11         6.0262   -1.7270   -2.4027 C.3       1 <0>         0.1140
     17 C12         7.4427   -3.7788   -2.5589 C.3       1 <0>         0.1431
     18 N3          8.0022   -4.9011   -1.8015 N.am      1 <0>        -0.7468
     19 C13         8.6905   -5.8683   -2.4397 C.2       1 <0>         0.7048
     20 O2          8.8470   -5.8094   -3.6440 O.2       1 <0>        -0.5888
     21 N4          9.2052   -6.9008   -1.7429 N.am      1 <0>        -0.8658
     22 H3         -0.5001    1.9129    0.9142 H         1 <0>         0.1148
     23 H4         -0.5172    1.9225   -0.8798 H         1 <0>         0.1018
     24 H5          1.6450    2.8909   -0.4483 H         1 <0>         0.1202
     25 H6          1.9085    1.8666    1.0027 H         1 <0>         0.1010
     26 H7          1.1629   -0.9829   -1.3720 H         1 <0>         0.4387
     27 H8         -0.1103   -0.3820    1.0182 H         1 <0>         0.1327
     28 H9         -0.8031   -0.3824   -0.6278 H         1 <0>         0.1344
     29 H10         4.0872    1.5379   -0.6914 H         1 <0>         0.1425
     30 H11         3.6738    0.2191    0.4303 H         1 <0>         0.1186
     31 H12         7.0639    0.4706   -0.9169 H         1 <0>         0.0845
     32 H13         5.7063    0.4463    0.2379 H         1 <0>         0.0874
     33 H14         7.7101   -0.8543    1.0410 H         1 <0>         0.0869
     34 H15         6.2440   -1.8529    0.8870 H         1 <0>         0.0681
     35 H16         8.4575   -1.6278   -1.2032 H         1 <0>         0.0748
     36 H17         8.2335   -2.9925   -0.0830 H         1 <0>         0.0736
     37 H18         5.2367   -2.1610   -3.0164 H         1 <0>         0.1020
     38 H19         6.7574   -1.2314   -3.0412 H         1 <0>         0.0830
     39 H20         6.7396   -4.1561   -3.3014 H         1 <0>         0.0718
     40 H21         8.2477   -3.2418   -3.0606 H         1 <0>         0.0733
     41 H22         7.8773   -4.9481   -0.8407 H         1 <0>         0.3957
     42 H23         9.0803   -6.9478   -0.7822 H         1 <0>         0.3971
     43 H24         9.7005   -7.5969   -2.2022 H         1 <0>         0.4188
     44 H25         1.8099   -0.9552    0.1445 H         1 <0>         0.4227
@<TRIPOS>BOND
     1    1    6 1
     2    1    2 1
     3    1   22 1
     4    1   23 1
     5    2    3 1
     6    2   24 1
     7    2   25 1
     8    3    4 1
     9    3    5 1
    10    3    7 1
    11    5    6 1
    12    5   26 1
    13    5   44 1
    14    6   27 1
    15    6   28 1
    16    7    8 1
    17    7   29 1
    18    7   30 1
    19    8    9 2
    20    8   10 am
    21   10   16 1
    22   10   11 1
    23   11   12 1
    24   11   31 1
    25   11   32 1
    26   12   13 1
    27   12   33 1
    28   12   34 1
    29   13   14 1
    30   13   35 1
    31   13   36 1
    32   14   15 1
    33   14   16 1
    34   14   17 1
    35   16   37 1
    36   16   38 1
    37   17   18 1
    38   17   39 1
    39   17   40 1
    40   18   19 am
    41   18   41 1
    42   19   20 2
    43   19   21 am
    44   21   42 1
    45   21   43 1
@<TRIPOS>MOLECULE
ZINC44879709
   46    46     0     0     0
SMALL
USER_CHARGES

@<TRIPOS>ATOM
      1 C1         -0.8553   -0.9995    0.0579 C.3       1 <0>        -0.1582
      2 C2         -1.4727    0.0409   -0.8787 C.3       1 <0>        -0.0683
      3 C3         -1.2993   -0.4124   -2.3296 C.3       1 <0>        -0.1692
      4 C4         -2.9630    0.1887   -0.5652 C.3       1 <0>        -0.0472
      5 H1         -3.0844    0.6015    0.4363 H         1 <0>         0.1204
      6 C5         -3.6275   -1.1620   -0.6357 C.2       1 <0>         0.3830
      7 N1         -3.1237   -2.0918   -1.3777 N.2       1 <0>        -0.3968
      8 O1         -3.7481   -3.3610   -1.4441 O.3       1 <0>        -0.4235
      9 N2         -4.7719   -1.4052    0.0908 N.pl3     1 <0>        -0.8658
     10 C6         -3.5984    1.1143   -1.5704 C.2       1 <0>         0.5316
     11 O2         -4.3447    0.6700   -2.4169 O.2       1 <0>        -0.4916
     12 N3         -3.3373    2.4359   -1.5288 N.am      1 <0>        -0.7524
     13 C7         -4.0369    3.3496   -2.4354 C.3       1 <0>         0.0957
     14 C8         -3.4658    4.7604   -2.2783 C.3       1 <0>         0.0188
     15 H2         -3.9284    5.4227   -3.0100 H         1 <0>         0.1544
     16 C9         -3.7602    5.2749   -0.8676 C.3       1 <0>        -0.1419
     17 C10        -3.1871    6.6869   -0.7152 C.3       1 <0>        -0.1384
     18 C11        -1.6866    6.6538   -1.0196 C.3       1 <0>        -0.1484
     19 C12        -1.4691    6.0881   -2.4247 C.3       1 <0>        -0.0079
     20 N4         -2.0148    4.7274   -2.4975 N.4       1 <0>        -0.3831
     21 C13        -1.7341    4.1597   -3.8230 C.3       1 <0>        -0.0547
     22 H3          0.2019   -1.1197   -0.1790 H         1 <0>         0.0655
     23 H4         -0.9606   -0.6667    1.0906 H         1 <0>         0.0546
     24 H5         -1.3671   -1.9532   -0.0705 H         1 <0>         0.0764
     25 H6         -0.9745    0.9998   -0.7356 H         1 <0>         0.0724
     26 H7         -1.6516   -1.4386   -2.4343 H         1 <0>         0.1071
     27 H8         -1.8773    0.2388   -2.9853 H         1 <0>         0.0423
     28 H9         -0.2454   -0.3604   -2.6031 H         1 <0>         0.0558
     29 H10        -3.2988   -3.9905   -2.0245 H         1 <0>         0.4031
     30 H11        -5.1503   -0.7071    0.6479 H         1 <0>         0.3943
     31 H12        -5.1997   -2.2746    0.0453 H         1 <0>         0.4130
     32 H13        -2.6862    2.7820   -0.8986 H         1 <0>         0.3957
     33 H14        -3.9015    3.0153   -3.4639 H         1 <0>         0.1009
     34 H15        -5.0996    3.3588   -2.1932 H         1 <0>         0.1128
     35 H16        -4.8380    5.3003   -0.7069 H         1 <0>         0.1168
     36 H17        -3.2977    4.6134   -0.1350 H         1 <0>         0.0866
     37 H18        -3.6858    7.3598   -1.4128 H         1 <0>         0.0847
     38 H19        -3.3444    7.0359    0.3053 H         1 <0>         0.0976
     39 H20        -1.2823    7.6647   -0.9676 H         1 <0>         0.1151
     40 H21        -1.1812    6.0209   -0.2902 H         1 <0>         0.0879
     41 H22        -1.9747    6.7218   -3.1533 H         1 <0>         0.1316
     42 H23        -0.4018    6.0633   -2.6447 H         1 <0>         0.1335
     43 H24        -2.2992    4.7051   -4.5789 H         1 <0>         0.1264
     44 H25        -0.6683    4.2431   -4.0356 H         1 <0>         0.1283
     45 H26        -2.0266    3.1098   -3.8379 H         1 <0>         0.1248
     46 H27        -1.5817    4.1536   -1.7895 H         1 <0>         0.4165
@<TRIPOS>BOND
     1    1    2 1
     2    1   22 1
     3    1   23 1
     4    1   24 1
     5    2    3 1
     6    2    4 1
     7    2   25 1
     8    3   26 1
     9    3   27 1
    10    3   28 1
    11    4    5 1
    12    4    6 1
    13    4   10 1
    14    6    7 2
    15    6    9 1
    16    7    8 1
    17    8   29 1
    18    9   30 1
    19    9   31 1
    20   10   11 2
    21   10   12 am
    22   12   13 1
    23   12   32 1
    24   13   14 1
    25   13   33 1
    26   13   34 1
    27   14   15 1
    28   14   20 1
    29   14   16 1
    30   16   17 1
    31   16   35 1
    32   16   36 1
    33   17   18 1
    34   17   37 1
    35   17   38 1
    36   18   19 1
    37   18   39 1
    38   18   40 1
    39   19   20 1
    40   19   41 1
    41   19   42 1
    42   20   21 1
    43   20   46 1
    44   21   43 1
    45   21   44 1
    46   21   45 1
@<TRIPOS>MOLECULE
ZINC52839892
   45    47     0     0     0
SMALL
USER_CHARGES

@<TRIPOS>ATOM
      1 C1          1.0289    1.5360    0.2130 C.3       1 <0>        -0.1643
      2 C2          1.2269    0.0190    0.2265 C.3       1 <0>        -0.0337
      3 C3         -0.1234   -0.6698    0.4338 C.3       1 <0>        -0.1549
      4 C4          1.8193   -0.4220   -1.0871 C.cat     1 <0>         0.3409
      5 N1          1.5631    0.1091   -2.2486 N.pl3     1 <0>        -0.4438
      6 C5          2.2692   -0.5365   -3.2009 C.2       1 <0>         0.0166
      7 C6          2.9978   -1.5169   -2.5875 C.2       1 <0>         0.3139
      8 N2          2.7138   -1.4365   -1.2508 N.pl3     1 <0>        -0.2795
      9 N3          3.2290   -2.2288   -0.2645 N.3       1 <0>        -0.5743
     10 N4          3.8628   -2.4177   -3.2014 N.pl3     1 <0>        -0.8261
     11 C7          2.2564   -0.2362   -4.6521 C.ar      1 <0>        -0.1107
     12 C8          2.1563   -1.2734   -5.5795 C.ar      1 <0>        -0.0539
     13 C9          2.1463   -0.9873   -6.9275 C.ar      1 <0>        -0.1825
     14 C10         2.2344    0.3310   -7.3644 C.ar      1 <0>         0.2451
     15 C11         2.3309    1.3663   -6.4464 C.ar      1 <0>        -0.1414
     16 C12         2.3385    1.0828   -5.0926 C.ar      1 <0>        -0.0514
     17 C13         2.4169    2.8038   -6.8878 C.3       1 <0>        -0.0771
     18 C14         2.8902    2.8913   -8.3384 C.3       1 <0>        -0.1399
     19 C15         2.0167    1.9714   -9.2014 C.3       1 <0>         0.1174
     20 N5          2.2265    0.5921   -8.7410 N.pl3     1 <0>        -0.6263
     21 C16         2.4236   -0.4928   -9.7056 C.3       1 <0>         0.0903
     22 H1          1.9909    2.0267    0.0653 H         1 <0>         0.0734
     23 H2          0.3542    1.8072   -0.5990 H         1 <0>         0.0635
     24 H3          0.6004    1.8550    1.1632 H         1 <0>         0.0970
     25 H4          1.9016   -0.2522    1.0386 H         1 <0>         0.1324
     26 H5         -0.7981   -0.3987   -0.3783 H         1 <0>         0.0667
     27 H6          0.0177   -1.7506    0.4434 H         1 <0>         0.0670
     28 H7         -0.5519   -0.3509    1.3840 H         1 <0>         0.0929
     29 H8          2.6550   -3.0459   -0.1202 H         1 <0>         0.3861
     30 H9          4.1822   -2.4882   -0.4699 H         1 <0>         0.3921
     31 H10         3.9951   -2.3854   -4.1618 H         1 <0>         0.4357
     32 H11         4.3335   -3.0778   -2.6689 H         1 <0>         0.4128
     33 H12         2.0872   -2.2970   -5.2423 H         1 <0>         0.1249
     34 H13         2.0701   -1.7889   -7.6473 H         1 <0>         0.1336
     35 H14         2.4121    1.8864   -4.3748 H         1 <0>         0.1233
     36 H15         1.4335    3.2659   -6.8018 H         1 <0>         0.0785
     37 H16         3.1207    3.3352   -6.2472 H         1 <0>         0.0801
     38 H17         2.7982    3.9186   -8.6912 H         1 <0>         0.0863
     39 H18         3.9307    2.5729   -8.4029 H         1 <0>         0.0726
     40 H19         0.9676    2.2436   -9.0860 H         1 <0>         0.0676
     41 H20         2.3089    2.0598  -10.2477 H         1 <0>         0.0876
     42 H21         1.5897   -1.1918   -9.6417 H         1 <0>         0.0579
     43 H22         2.4744   -0.0788  -10.7127 H         1 <0>         0.0810
     44 H23         3.3535   -1.0149   -9.4801 H         1 <0>         0.0607
     45 H24         0.9591    0.8518   -2.4048 H         1 <0>         0.4619
@<TRIPOS>BOND
     1    1    2 1
     2    1   22 1
     3    1   23 1
     4    1   24 1
     5    2    3 1
     6    2    4 1
     7    2   25 1
     8    3   26 1
     9    3   27 1
    10    3   28 1
    11    4    8 1
    12    4    5 2
    13    5    6 1
    14    5   45 1
    15    6    7 2
    16    6   11 1
    17    7    8 1
    18    7   10 1
    19    8    9 1
    20    9   29 1
    21    9   30 1
    22   10   31 1
    23   10   32 1
    24   11   16 ar
    25   11   12 ar
    26   12   13 ar
    27   12   33 1
    28   13   14 ar
    29   13   34 1
    30   14   20 1
    31   14   15 ar
    32   15   16 ar
    33   15   17 1
    34   16   35 1
    35   17   18 1
    36   17   36 1
    37   17   37 1
    38   18   19 1
    39   18   38 1
    40   18   39 1
    41   19   20 1
    42   19   40 1
    43   19   41 1
    44   20   21 1
    45   21   42 1
    46   21   43 1
    47   21   44 1
@<TRIPOS>MOLECULE
ZINC02419838
   45    49     0     0     0
SMALL
USER_CHARGES
(3-chlorophenyl)sulfonyl-(2-furylmethyl)BLAHamine
@<TRIPOS>ATOM
      1 C1          6.7512   -3.6019   -4.1295 C.ar      1 <0>        -0.1011
      2 C2          6.2633   -3.9887   -5.3768 C.ar      1 <0>        -0.1004
      3 C3          4.9257   -4.0802   -5.6073 C.ar      1 <0>        -0.0845
      4 C4          4.0152   -3.7818   -4.5768 C.ar      1 <0>         0.0960
      5 C5          4.5112   -3.3885   -3.3081 C.ar      1 <0>         0.0931
      6 C6          5.9028   -3.3055   -3.1087 C.ar      1 <0>        -0.0812
      7 N1          3.6688   -3.0987   -2.3108 N.ar      1 <0>        -0.4099
      8 C7          2.3633   -3.1811   -2.5134 C.ar      1 <0>         0.2026
      9 C8          1.2223   -2.9538   -1.7076 C.2       1 <0>        -0.8157
     10 C9          0.1229   -3.2046   -2.4566 C.2       1 <0>         0.5568
     11 N2          0.4780   -3.5801   -3.7279 N.pl3     1 <0>        -0.4848
     12 C10         1.8530   -3.5891   -3.8281 C.ar      1 <0>         0.2868
     13 N3          2.6970   -3.8690   -4.7958 N.ar      1 <0>        -0.4318
     14 C11        -0.4547   -3.9216   -4.8049 C.3       1 <0>         0.1894
     15 C12        -0.7538   -5.3979   -4.7611 C.2       1 <0>        -0.0582
     16 C13        -1.7479   -5.9789   -4.0658 C.2       1 <0>        -0.1774
     17 C14        -1.6623   -7.3685   -4.3120 C.2       1 <0>        -0.2173
     18 C15        -0.6158   -7.5544   -5.1365 C.2       1 <0>        -0.0169
     19 O1         -0.0694   -6.3574   -5.4052 O.3       1 <0>        -0.1612
     20 N4         -1.1794   -3.0946   -2.0037 N.pl3     1 <0>        -0.8252
     21 S1          1.2313   -2.4414   -0.0217 S.o2      1 <0>         2.6200
     22 O2          2.4869   -2.8340    0.5154 O.2       1 <0>        -0.9117
     23 O3         -0.0035   -2.8665    0.5385 O.2       1 <0>        -0.9496
     24 C16         1.2084   -0.6796   -0.0126 C.ar      1 <0>        -0.6490
     25 C17         0.0021   -0.0041    0.0020 C.ar      1 <0>        -0.0241
     26 C18        -0.0167    1.3780    0.0096 C.ar      1 <0>        -0.1259
     27 C19         1.1708    2.0857    0.0021 C.ar      1 <0>        -0.0563
     28 C20         2.3780    1.4104   -0.0126 C.ar      1 <0>        -0.0558
     29 C21         2.3961    0.0268   -0.0197 C.ar      1 <0>        -0.0051
     30 Cl1         3.8696    2.2984   -0.0209 Cl        1 <0>        -0.0542
     31 H1          7.8176   -3.5372   -3.9715 H         1 <0>         0.1363
     32 H2          6.9573   -4.2193   -6.1715 H         1 <0>         0.1354
     33 H3          4.5634   -4.3808   -6.5793 H         1 <0>         0.1373
     34 H4          6.2953   -3.0077   -2.1476 H         1 <0>         0.1428
     35 H5         -1.3797   -3.3595   -4.6763 H         1 <0>         0.1255
     36 H6         -0.0073   -3.6698   -5.7664 H         1 <0>         0.1238
     37 H7         -2.4737   -5.4794   -3.4411 H         1 <0>         0.1502
     38 H8         -2.3100   -8.1342   -3.9113 H         1 <0>         0.1545
     39 H9         -0.2734   -8.5050   -5.5180 H         1 <0>         0.2078
     40 H10        -1.3535   -2.8207   -1.0896 H         1 <0>         0.4386
     41 H11        -1.9186   -3.2914   -2.6001 H         1 <0>         0.4121
     42 H12        -0.9259   -0.5565    0.0079 H         1 <0>         0.1444
     43 H13        -0.9593    1.9051    0.0169 H         1 <0>         0.1444
     44 H14         1.1560    3.1655    0.0076 H         1 <0>         0.1432
     45 H15         3.3383   -0.5010   -0.0312 H         1 <0>         0.1560
@<TRIPOS>BOND
     1    1    6 ar
     2    1    2 ar
     3    1   31 1
     4    2    3 ar
     5    2   32 1
     6    3    4 ar
     7    3   33 1
     8    4   13 ar
     9    4    5 ar
    10    5    6 ar
    11    5    7 ar
    12    6   34 1
    13    7    8 ar
    14    8   12 ar
    15    8    9 1
    16    9   10 2
    17    9   21 1
    18   10   11 1
    19   10   20 1
    20   11   12 1
    21   11   14 1
    22   12   13 ar
    23   14   15 1
    24   14   35 1
    25   14   36 1
    26   15   19 1
    27   15   16 2
    28   16   17 1
    29   16   37 1
    30   17   18 2
    31   17   38 1
    32   18   19 1
    33   18   39 1
    34   20   40 1
    35   20   41 1
    36   21   22 2
    37   21   23 2
    38   21   24 1
    39   24   29 ar
    40   24   25 ar
    41   25   26 ar
    42   25   42 1
    43   26   27 ar
    44   26   43 1
    45   27   28 ar
    46   27   44 1
    47   28   29 ar
    48   28   30 1
    49   29   45 1
@<TRIPOS>MOLECULE
ZINC12661278
   71    76     0     0     0
SMALL
USER_CHARGES
(5R,8S,9R,10S,11S,13R,14S,17S)-11-hydroxy-10-methyl-17-(2-methyl-1,3-dioxolan-2-yl)spiro[1,2,4,5,6,7,8,9,11,12,14,15,16,17-tetradecahydrocyclopenta[a]phenanthrene-3,2'-1,3-dioxolane]-13-carbaldehyde oxime
@<TRIPOS>ATOM
      1 C1         -2.9731   -1.8321    0.8406 C.3       1 <0>        -0.1556
      2 C2         -2.8383   -0.2968    0.6736 C.3       1 <0>        -0.0321
      3 C3         -2.3540   -0.0229   -0.7442 C.3       1 <0>        -0.1088
      4 C4         -0.9475   -0.5730   -0.9784 C.3       1 <0>        -0.1171
      5 C5          0.0132    0.0505    0.0339 C.3       1 <0>         0.2636
      6 C6         -0.4275   -0.3192    1.4469 C.3       1 <0>        -0.1351
      7 C7         -1.8446    0.1681    1.7276 C.3       1 <0>        -0.0608
      8 H1         -2.1595   -0.2593    2.6983 H         1 <0>         0.0668
      9 C8         -1.8544    1.6884    1.8715 C.3       1 <0>        -0.1154
     10 C9         -3.2463    2.1037    2.3526 C.3       1 <0>        -0.1168
     11 C10        -4.2678    1.7665    1.2670 C.3       1 <0>        -0.0584
     12 H2         -5.2588    1.9891    1.7011 H         1 <0>         0.0669
     13 C11        -4.2300    0.2928    0.8886 C.3       1 <0>        -0.0547
     14 H3         -4.6559   -0.2622    1.7628 H         1 <0>         0.0721
     15 C12        -5.1419   -0.0365   -0.2876 C.3       1 <0>         0.1216
     16 H4         -4.8544   -1.0231   -0.6907 H         1 <0>         0.0466
     17 C13        -5.1001    0.9541   -1.4476 C.3       1 <0>        -0.1456
     18 C14        -5.1891    2.3804   -0.9656 C.3       1 <0>         0.0070
     19 C15        -4.0497    2.6259    0.0508 C.3       1 <0>        -0.0768
     20 H5         -3.0810    2.3959   -0.4085 H         1 <0>         0.0953
     21 C16        -4.1270    4.1466    0.2456 C.3       1 <0>        -0.1185
     22 C17        -4.3591    4.6631   -1.2017 C.3       1 <0>        -0.1125
     23 C18        -4.8952    3.4603   -2.0182 C.3       1 <0>        -0.0813
     24 H6         -4.1437    3.1035   -2.7166 H         1 <0>         0.0976
     25 C19        -6.1837    3.8423   -2.7493 C.3       1 <0>         0.2627
     26 O1         -5.8940    4.8262   -3.7566 O.3       1 <0>        -0.3689
     27 C20        -7.0483    5.7002   -3.7633 C.3       1 <0>         0.0167
     28 C21        -7.4250    5.7355   -2.2610 C.3       1 <0>         0.0161
     29 O2         -7.1201    4.3980   -1.8167 O.3       1 <0>        -0.3645
     30 C22        -6.7889    2.6005   -3.4072 C.3       1 <0>        -0.1862
     31 C23        -6.5437    2.6660   -0.3772 C.2       1 <0>         0.1446
     32 N1         -7.4837    1.8048   -0.4876 N.2       1 <0>        -0.3167
     33 O3         -8.7588    2.0736    0.0663 O.3       1 <0>        -0.4224
     34 O4         -6.4852   -0.1843    0.1894 O.3       1 <0>        -0.5566
     35 O5          0.0329    1.4727   -0.1234 O.3       1 <0>        -0.3652
     36 C24         1.4084    1.8867   -0.2237 C.3       1 <0>         0.0197
     37 C25         2.2080    0.6376    0.2189 C.3       1 <0>         0.0148
     38 O6          1.3430   -0.4451   -0.2010 O.3       1 <0>        -0.3726
     39 H7         -3.3355   -2.0581    1.8434 H         1 <0>         0.0555
     40 H8         -3.6784   -2.2172    0.1041 H         1 <0>         0.0563
     41 H9         -2.0002   -2.3006    0.6917 H         1 <0>         0.0584
     42 H10        -3.0330   -0.5115   -1.4545 H         1 <0>         0.0685
     43 H11        -2.3480    1.0441   -0.9506 H         1 <0>         0.0801
     44 H12        -0.6236   -0.3045   -1.9890 H         1 <0>         0.0717
     45 H13        -0.9358   -1.6553   -0.8851 H         1 <0>         0.0810
     46 H14        -0.3668   -1.4008    1.5780 H         1 <0>         0.0796
     47 H15         0.2585    0.1464    2.1653 H         1 <0>         0.0662
     48 H16        -1.1093    1.9951    2.6046 H         1 <0>         0.0560
     49 H17        -1.6470    2.1602    0.9144 H         1 <0>         0.0882
     50 H18        -3.4934    1.5615    3.2640 H         1 <0>         0.0590
     51 H19        -3.2610    3.1746    2.5467 H         1 <0>         0.0651
     52 H20        -4.1797    0.8213   -2.0273 H         1 <0>         0.0794
     53 H21        -5.9431    0.7514   -2.1257 H         1 <0>         0.0770
     54 H22        -3.1779    4.5246    0.6348 H         1 <0>         0.0694
     55 H23        -4.9428    4.4262    0.9041 H         1 <0>         0.0679
     56 H24        -3.4170    5.0111   -1.6272 H         1 <0>         0.0688
     57 H25        -5.0883    5.4720   -1.1991 H         1 <0>         0.0678
     58 H26        -7.8564    5.2748   -4.3583 H         1 <0>         0.0739
     59 H27        -6.7828    6.6944   -4.1225 H         1 <0>         0.1082
     60 H28        -8.4861    5.9508   -2.1350 H         1 <0>         0.0975
     61 H29        -6.8166    6.4664   -1.7284 H         1 <0>         0.0764
     62 H30        -7.1353    1.9129   -2.6356 H         1 <0>         0.0957
     63 H31        -7.6296    2.8953   -4.0353 H         1 <0>         0.0585
     64 H32        -6.0329    2.1087   -4.0193 H         1 <0>         0.0718
     65 H33        -6.7230    3.5979    0.1383 H         1 <0>         0.1129
     66 H34        -9.4030    1.3649   -0.0673 H         1 <0>         0.3949
     67 H35        -7.1272   -0.3954   -0.5022 H         1 <0>         0.3749
     68 H36         1.6556    2.1600   -1.2503 H         1 <0>         0.0768
     69 H37         1.6055    2.7253    0.4476 H         1 <0>         0.0921
     70 H38         2.3495    0.6263    1.3001 H         1 <0>         0.0740
     71 H39         3.1690    0.5881   -0.2951 H         1 <0>         0.1066
@<TRIPOS>BOND
     1    1    2 1
     2    1   39 1
     3    1   40 1
     4    1   41 1
     5    2    7 1
     6    2   13 1
     7    2    3 1
     8    3    4 1
     9    3   42 1
    10    3   43 1
    11    4    5 1
    12    4   44 1
    13    4   45 1
    14    5   38 1
    15    5    6 1
    16    5   35 1
    17    6    7 1
    18    6   46 1
    19    6   47 1
    20    7    8 1
    21    7    9 1
    22    9   10 1
    23    9   48 1
    24    9   49 1
    25   10   11 1
    26   10   50 1
    27   10   51 1
    28   11   12 1
    29   11   19 1
    30   11   13 1
    31   13   14 1
    32   13   15 1
    33   15   16 1
    34   15   17 1
    35   15   34 1
    36   17   18 1
    37   17   52 1
    38   17   53 1
    39   18   23 1
    40   18   19 1
    41   18   31 1
    42   19   20 1
    43   19   21 1
    44   21   22 1
    45   21   54 1
    46   21   55 1
    47   22   23 1
    48   22   56 1
    49   22   57 1
    50   23   24 1
    51   23   25 1
    52   25   29 1
    53   25   26 1
    54   25   30 1
    55   26   27 1
    56   27   28 1
    57   27   58 1
    58   27   59 1
    59   28   29 1
    60   28   60 1
    61   28   61 1
    62   30   62 1
    63   30   63 1
    64   30   64 1
    65   31   32 2
    66   31   65 1
    67   32   33 1
    68   33   66 1
    69   34   67 1
    70   35   36 1
    71   36   37 1
    72   36   68 1
    73   36   69 1
    74   37   38 1
    75   37   70 1
    76   37   71 1
@<TRIPOS>MOLECULE
ZINC24905896
   49    52     0     0     0
SMALL
USER_CHARGES
5-fluoro-1'-[[4-(trifluoromethoxy)phenyl]methyl]spiro[2,4-dihydrobenzo[e][1,2,4]thiadiazine-3,4'-piperidine] 1,1-dioxide
@<TRIPOS>ATOM
      1 C1         -0.0126    1.0758    0.0080 C.ar      1 <0>        -0.1634
      2 C2         -1.2176    1.7552    0.0173 C.ar      1 <0>        -0.0853
      3 C3         -1.2394    3.1337    0.0177 C.ar      1 <0>        -0.0007
      4 C4         -0.0442    3.8635   -0.0071 C.ar      1 <0>         0.2731
      5 C5          1.1539    3.1674   -0.0028 C.ar      1 <0>        -0.6942
      6 C6          1.1727    1.7873    0.0005 C.ar      1 <0>        -0.0111
      7 S1          2.6839    4.0568    0.0184 S.o2      1 <0>         2.5653
      8 O1          3.2316    3.9163    1.3220 O.2       1 <0>        -1.0388
      9 O2          3.3932    3.6975   -1.1593 O.2       1 <0>        -0.9971
     10 N1          2.2206    5.6535   -0.1513 N.2       1 <0>        -1.0914
     11 C7          0.9594    6.0047    0.5343 C.3       1 <0>         0.3668
     12 N2         -0.1374    5.2492   -0.0553 N.pl3     1 <0>        -0.7526
     13 C8          0.7127    7.5069    0.3786 C.3       1 <0>        -0.1058
     14 C9          1.8603    8.2786    1.0343 C.3       1 <0>         0.0086
     15 N3          1.9426    7.9212    2.4562 N.4       1 <0>        -0.3928
     16 C10         2.2296    6.4912    2.6283 C.3       1 <0>         0.0175
     17 C11         1.0935    5.6652    2.0207 C.3       1 <0>        -0.1879
     18 C12         2.9414    8.7458    3.1493 C.3       1 <0>         0.0468
     19 C13         2.4861   10.1823    3.1612 C.ar      1 <0>        -0.1665
     20 C14         2.8483   11.0296    2.1303 C.ar      1 <0>        -0.0497
     21 C15         2.4275   12.3454    2.1360 C.ar      1 <0>        -0.1899
     22 C16         1.6503   12.8194    3.1830 C.ar      1 <0>         0.1358
     23 C17         1.2931   11.9687    4.2190 C.ar      1 <0>        -0.1225
     24 C18         1.7117   10.6522    4.2058 C.ar      1 <0>        -0.0565
     25 O3          1.2394   14.1147    3.1935 O.3       1 <0>        -0.3082
     26 C19         1.6448   14.9329    2.0943 C.3       1 <0>         0.6049
     27 F1          1.1507   14.3914    0.9027 F         1 <0>        -0.1614
     28 F2          1.1388   16.2261    2.2639 F         1 <0>        -0.1245
     29 F3          3.0419   14.9822    2.0400 F         1 <0>        -0.1613
     30 F4         -2.4226    3.7855    0.0364 F         1 <0>        -0.1468
     31 H1          0.0021   -0.0041    0.0020 H         1 <0>         0.1315
     32 H2         -2.1457    1.2031    0.0286 H         1 <0>         0.1317
     33 H3          2.1162    1.2617   -0.0032 H         1 <0>         0.1260
     34 H4         -0.9874    5.7784   -0.5108 H         1 <0>         0.4241
     35 H5          0.6614    7.7612   -0.6904 H         1 <0>         0.1126
     36 H6         -0.2367    7.7750    0.8652 H         1 <0>         0.0716
     37 H7          2.8068    8.0211    0.5366 H         1 <0>         0.1450
     38 H8          1.6777    9.3591    0.9382 H         1 <0>         0.1149
     39 H9          3.1741    6.2433    2.1220 H         1 <0>         0.1457
     40 H10         2.3170    6.2612    3.7004 H         1 <0>         0.1186
     41 H11         0.1510    5.9000    2.5369 H         1 <0>         0.0735
     42 H12         1.3163    4.5939    2.1335 H         1 <0>         0.1118
     43 H13         3.0573    8.3893    4.1835 H         1 <0>         0.1358
     44 H14         3.9058    8.6712    2.6255 H         1 <0>         0.1360
     45 H15         3.4569   10.6613    1.3178 H         1 <0>         0.1453
     46 H16         2.7069   13.0057    1.3284 H         1 <0>         0.1437
     47 H17         0.6885   12.3353    5.0353 H         1 <0>         0.1491
     48 H18         1.4335    9.9895    5.0119 H         1 <0>         0.1466
     49 H19         0.9613    8.1234    2.9101 H         1 <0>         0.4262
@<TRIPOS>BOND
     1    1    6 ar
     2    1    2 ar
     3    1   31 1
     4    2    3 ar
     5    2   32 1
     6    3    4 ar
     7    3   30 1
     8    4   12 1
     9    4    5 ar
    10    5    6 ar
    11    5    7 1
    12    6   33 1
    13    7    8 2
    14    7    9 2
    15    7   10 1
    16   10   11 1
    17   11   17 1
    18   11   12 1
    19   11   13 1
    20   12   34 1
    21   13   14 1
    22   13   35 1
    23   13   36 1
    24   14   15 1
    25   14   37 1
    26   14   38 1
    27   15   16 1
    28   15   18 1
    29   15   49 1
    30   16   17 1
    31   16   39 1
    32   16   40 1
    33   17   41 1
    34   17   42 1
    35   18   19 1
    36   18   43 1
    37   18   44 1
    38   19   24 ar
    39   19   20 ar
    40   20   21 ar
    41   20   45 1
    42   21   22 ar
    43   21   46 1
    44   22   23 ar
    45   22   25 1
    46   23   24 ar
    47   23   47 1
    48   24   48 1
    49   25   26 1
    50   26   27 1
    51   26   28 1
    52   26   29 1
@<TRIPOS>MOLECULE
ZINC38519847
   54    58     0     0     0
SMALL
USER_CHARGES

@<TRIPOS>ATOM
      1 C1         -0.0804    1.4085   -0.0678 C.3       1 <0>         0.0975
      2 N1         -0.0682   -0.0564   -0.0562 N.pl3     1 <0>        -0.3654
      3 C2         -0.0944   -0.8581   -1.1375 C.2       1 <0>         0.3430
      4 C3         -0.0570   -2.1538   -0.6956 C.2       1 <0>        -0.3020
      5 C4         -0.0204   -2.1317    0.6956 C.2       1 <0>         0.3402
      6 N2         -0.0211   -0.8742    1.0845 N.2       1 <0>        -0.2627
      7 N3          0.0165   -3.2528    1.5357 N.am      1 <0>        -0.6371
      8 C5          0.0499   -3.0917    2.8734 C.2       1 <0>         0.5224
      9 O1          0.1429   -1.9795    3.3482 O.2       1 <0>        -0.4772
     10 C6         -0.0284   -4.2935    3.7793 C.3       1 <0>        -0.0359
     11 C7         -1.3080   -5.0949    3.4825 C.3       1 <0>        -0.1155
     12 C8         -2.1360   -5.1011    4.7841 C.3       1 <0>        -0.1235
     13 C9         -1.6423   -3.8512    5.5543 C.3       1 <0>        -0.1257
     14 C10        -0.1234   -3.8407    5.2509 C.3       1 <0>        -0.1064
     15 C11         1.1850   -5.1659    3.5849 C.ar      1 <0>        -0.0678
     16 C12         2.2194   -4.7398    2.7728 C.ar      1 <0>        -0.1109
     17 C13         3.3325   -5.5394    2.5941 C.ar      1 <0>        -0.1005
     18 C14         3.4113   -6.7666    3.2282 C.ar      1 <0>        -0.0334
     19 C15         2.3757   -7.1925    4.0408 C.ar      1 <0>        -0.1038
     20 C16         1.2656   -6.3895    4.2232 C.ar      1 <0>        -0.0928
     21 Cl1         4.8088   -7.7717    3.0038 Cl        1 <0>        -0.0661
     22 C17        -0.0503   -3.3286   -1.6403 C.3       1 <0>         0.0846
     23 H1          0.9775   -3.6042   -1.8766 H         1 <0>         0.1145
     24 C18        -0.7830   -2.9193   -2.9222 C.3       1 <0>        -0.1336
     25 C19        -0.3669   -1.5472   -3.3718 C.2       1 <0>         0.5403
     26 O2         -0.2359   -1.3322   -4.5583 O.2       1 <0>        -0.5067
     27 N4         -0.1345   -0.5463   -2.4963 N.am      1 <0>        -0.6457
     28 C20        -0.7556   -4.4976   -1.0022 C.2       1 <0>        -0.0146
     29 C21        -0.2092   -5.6986   -0.7405 C.2       1 <0>        -0.2019
     30 C22        -1.2199   -6.4872   -0.1443 C.2       1 <0>        -0.2101
     31 C23        -2.3234   -5.7210   -0.0773 C.2       1 <0>        -0.0357
     32 O3         -2.0347   -4.5150   -0.5931 O.3       1 <0>        -0.1652
     33 H2          0.9436    1.7800   -0.1068 H         1 <0>         0.0817
     34 H3         -0.6281    1.7604   -0.9421 H         1 <0>         0.0859
     35 H4         -0.5657    1.7750    0.8368 H         1 <0>         0.1010
     36 H5          0.0179   -4.1447    1.1544 H         1 <0>         0.4209
     37 H6         -1.8724   -4.6145    2.6832 H         1 <0>         0.0710
     38 H7         -1.0519   -6.1154    3.1980 H         1 <0>         0.0828
     39 H8         -3.1994   -5.0158    4.5602 H         1 <0>         0.0712
     40 H9         -1.9374   -6.0061    5.3582 H         1 <0>         0.0718
     41 H10        -2.1188   -2.9486    5.1718 H         1 <0>         0.0703
     42 H11        -1.8218   -3.9606    6.6238 H         1 <0>         0.0743
     43 H12         0.4002   -4.5422    5.9004 H         1 <0>         0.0798
     44 H13         0.2820   -2.8357    5.3677 H         1 <0>         0.0907
     45 H14         2.1576   -3.7820    2.2776 H         1 <0>         0.1287
     46 H15         4.1404   -5.2066    1.9594 H         1 <0>         0.1354
     47 H16         2.4365   -8.1504    4.5358 H         1 <0>         0.1372
     48 H17         0.4593   -6.7197    4.8613 H         1 <0>         0.1370
     49 H18        -0.5543   -3.6378   -3.7093 H         1 <0>         0.1198
     50 H19        -1.8571   -2.9241   -2.7367 H         1 <0>         0.1136
     51 H20         0.0011    0.3637   -2.8035 H         1 <0>         0.4166
     52 H21         0.8064   -6.0023   -0.9469 H         1 <0>         0.1527
     53 H22        -1.1243   -7.5089    0.1924 H         1 <0>         0.1518
     54 H23        -3.2785   -6.0230    0.3265 H         1 <0>         0.2036
@<TRIPOS>BOND
     1    1    2 1
     2    1   33 1
     3    1   34 1
     4    1   35 1
     5    2    6 1
     6    2    3 1
     7    3   27 1
     8    3    4 2
     9    4    5 1
    10    4   22 1
    11    5    6 2
    12    5    7 1
    13    7    8 am
    14    7   36 1
    15    8    9 2
    16    8   10 1
    17   10   14 1
    18   10   11 1
    19   10   15 1
    20   11   12 1
    21   11   37 1
    22   11   38 1
    23   12   13 1
    24   12   39 1
    25   12   40 1
    26   13   14 1
    27   13   41 1
    28   13   42 1
    29   14   43 1
    30   14   44 1
    31   15   20 ar
    32   15   16 ar
    33   16   17 ar
    34   16   45 1
    35   17   18 ar
    36   17   46 1
    37   18   19 ar
    38   18   21 1
    39   19   20 ar
    40   19   47 1
    41   20   48 1
    42   22   23 1
    43   22   24 1
    44   22   28 1
    45   24   25 1
    46   24   49 1
    47   24   50 1
    48   25   26 2
    49   25   27 am
    50   27   51 1
    51   28   32 1
    52   28   29 2
    53   29   30 1
    54   29   52 1
    55   30   31 2
    56   30   53 1
    57   31   32 1
    58   31   54 1
@<TRIPOS>MOLECULE
ZINC43740323
   71    76     0     0     0
SMALL
USER_CHARGES

@<TRIPOS>ATOM
      1 C1         -0.8836    1.1703   -1.3167 C.3       1 <0>        -0.1557
      2 C2         -0.7484   -0.2653   -0.8050 C.3       1 <0>        -0.0391
      3 C3         -0.4446   -1.1986   -1.9821 C.3       1 <0>        -0.1143
      4 C4          0.8756   -0.8008   -2.6408 C.3       1 <0>        -0.1227
      5 C5          1.9990   -0.9137   -1.6076 C.3       1 <0>         0.2598
      6 C6          1.7143    0.0312   -0.4430 C.3       1 <0>        -0.1335
      7 C7          0.3760   -0.3327    0.2233 C.3       1 <0>        -0.0747
      8 H1          0.4301   -1.3399    0.6364 H         1 <0>         0.0911
      9 C8          0.1346    0.6678    1.3554 C.3       1 <0>        -0.1162
     10 C9         -1.3552    0.8544    1.6160 C.3       1 <0>        -0.1161
     11 C10        -2.0951   -0.4491    1.3089 C.3       1 <0>        -0.0639
     12 H2         -3.1306   -0.3504    1.6345 H         1 <0>         0.0711
     13 C11        -2.0734   -0.7106   -0.1867 C.3       1 <0>        -0.0683
     14 H3         -2.8349   -0.0595   -0.6160 H         1 <0>         0.0755
     15 C12        -2.4416   -2.1054   -0.6329 C.3       1 <0>         0.0955
     16 H4         -2.0978   -2.2446   -1.6578 H         1 <0>         0.0748
     17 C13        -1.8425   -3.2134    0.2381 C.3       1 <0>        -0.1312
     18 C14        -2.2078   -2.9056    1.6780 C.3       1 <0>         0.0062
     19 C15        -1.4613   -1.6001    2.0469 C.3       1 <0>        -0.1030
     20 H5         -0.4099   -1.6816    1.7710 H         1 <0>         0.1111
     21 C16        -1.6026   -1.5899    3.5730 C.3       1 <0>        -0.1181
     22 C17        -1.3675   -3.0765    3.9547 C.3       1 <0>        -0.1166
     23 C18        -1.7223   -3.9058    2.7238 C.3       1 <0>        -0.0808
     24 H6         -2.5062   -4.6296    2.9464 H         1 <0>         0.1009
     25 C19        -0.4640   -4.6215    2.2283 C.3       1 <0>         0.2643
     26 O1         -0.7367   -5.2632    0.9712 O.3       1 <0>        -0.3597
     27 C20         0.0310   -6.4902    1.0076 C.3       1 <0>         0.0099
     28 C21        -0.0853   -6.8901    2.4998 C.3       1 <0>         0.0207
     29 O2         -0.0708   -5.6189    3.1802 O.3       1 <0>        -0.3759
     30 C22         0.6674   -3.6073    2.0494 C.3       1 <0>        -0.1897
     31 C23        -3.6984   -2.7199    1.7998 C.2       1 <0>         0.1372
     32 N1         -4.3974   -3.5683    2.4546 N.2       1 <0>        -0.3494
     33 O3         -5.7980   -3.3938    2.5690 O.3       1 <0>        -0.4250
     34 O4         -3.8649   -2.2305   -0.6099 O.3       1 <0>        -0.5687
     35 O5          3.2482   -0.5574   -2.2223 O.3       1 <0>        -0.3725
     36 C24         4.2243   -1.4360   -1.6124 C.3       1 <0>         0.0147
     37 C25         3.4089   -2.7422   -1.4422 C.3       1 <0>         0.0199
     38 O6          2.0848   -2.2624   -1.1325 O.3       1 <0>        -0.3694
     39 H7          0.0102    1.4413   -1.8787 H         1 <0>         0.0600
     40 H8         -1.7567    1.2442   -1.9649 H         1 <0>         0.0554
     41 H9         -1.0005    1.8479   -0.4710 H         1 <0>         0.0683
     42 H10        -0.3736   -2.2245   -1.6209 H         1 <0>         0.0805
     43 H11        -1.2490   -1.1301   -2.7145 H         1 <0>         0.0713
     44 H12         1.0813   -1.4677   -3.4780 H         1 <0>         0.0720
     45 H13         0.8102    0.2269   -2.9981 H         1 <0>         0.0824
     46 H14         2.5153   -0.0502    0.2917 H         1 <0>         0.0674
     47 H15         1.6700    1.0558   -0.8123 H         1 <0>         0.0829
     48 H16         0.6133    0.3021    2.2638 H         1 <0>         0.0620
     49 H17         0.5729    1.6280    1.0833 H         1 <0>         0.0636
     50 H18        -1.5103    1.1225    2.6611 H         1 <0>         0.0656
     51 H19        -1.7390    1.6492    0.9765 H         1 <0>         0.0706
     52 H20        -2.2587   -4.1783   -0.0516 H         1 <0>         0.0807
     53 H21        -0.7584   -3.2278    0.1258 H         1 <0>         0.0989
     54 H22        -0.8447   -0.9510    4.0262 H         1 <0>         0.0700
     55 H23        -2.6029   -1.2704    3.8654 H         1 <0>         0.0650
     56 H24        -0.3251   -3.2307    4.2335 H         1 <0>         0.0770
     57 H25        -2.0215   -3.3587    4.7798 H         1 <0>         0.0662
     58 H26        -0.4151   -7.2488    0.3644 H         1 <0>         0.1061
     59 H27         1.0698   -6.3089    0.7321 H         1 <0>         0.0741
     60 H28        -1.0218   -7.4159    2.6858 H         1 <0>         0.0748
     61 H29         0.7664   -7.4990    2.8029 H         1 <0>         0.0976
     62 H30         0.7732   -3.0167    2.9595 H         1 <0>         0.0790
     63 H31         1.5998   -4.1348    1.8482 H         1 <0>         0.0608
     64 H32         0.4353   -2.9478    1.2132 H         1 <0>         0.0940
     65 H33        -4.1766   -1.8707    1.3344 H         1 <0>         0.1353
     66 H34        -6.2398   -4.0845    3.0816 H         1 <0>         0.3986
     67 H35        -4.1919   -3.0675   -0.9670 H         1 <0>         0.3752
     68 H36         5.0767   -1.5914   -2.2738 H         1 <0>         0.1076
     69 H37         4.5477   -1.0492   -0.6460 H         1 <0>         0.0751
     70 H38         3.4036   -3.3164   -2.3687 H         1 <0>         0.0752
     71 H39         3.8045   -3.3389   -0.6203 H         1 <0>         0.0980
@<TRIPOS>BOND
     1    1    2 1
     2    1   39 1
     3    1   40 1
     4    1   41 1
     5    2    7 1
     6    2   13 1
     7    2    3 1
     8    3    4 1
     9    3   42 1
    10    3   43 1
    11    4    5 1
    12    4   44 1
    13    4   45 1
    14    5   38 1
    15    5    6 1
    16    5   35 1
    17    6    7 1
    18    6   46 1
    19    6   47 1
    20    7    8 1
    21    7    9 1
    22    9   10 1
    23    9   48 1
    24    9   49 1
    25   10   11 1
    26   10   50 1
    27   10   51 1
    28   11   12 1
    29   11   19 1
    30   11   13 1
    31   13   14 1
    32   13   15 1
    33   15   16 1
    34   15   17 1
    35   15   34 1
    36   17   18 1
    37   17   52 1
    38   17   53 1
    39   18   23 1
    40   18   19 1
    41   18   31 1
    42   19   20 1
    43   19   21 1
    44   21   22 1
    45   21   54 1
    46   21   55 1
    47   22   23 1
    48   22   56 1
    49   22   57 1
    50   23   24 1
    51   23   25 1
    52   25   29 1
    53   25   26 1
    54   25   30 1
    55   26   27 1
    56   27   28 1
    57   27   58 1
    58   27   59 1
    59   28   29 1
    60   28   60 1
    61   28   61 1
    62   30   62 1
    63   30   63 1
    64   30   64 1
    65   31   32 2
    66   31   65 1
    67   32   33 1
    68   33   66 1
    69   34   67 1
    70   35   36 1
    71   36   37 1
    72   36   68 1
    73   36   69 1
    74   37   38 1
    75   37   70 1
    76   37   71 1
@<TRIPOS>MOLECULE
ZINC08845520
   48    51     0     0     0
SMALL
USER_CHARGES

@<TRIPOS>ATOM
      1 C1         -1.1364    0.5219   -0.0620 C.3       1 <0>        -0.1148
      2 C2         -0.9748   -0.9671    0.1043 C.ar      1 <0>        -0.0855
      3 C3         -1.0844   -1.7996   -0.9956 C.ar      1 <0>        -0.0975
      4 C4         -0.9378   -3.1663   -0.8529 C.ar      1 <0>        -0.1061
      5 C5         -0.6801   -3.7101    0.3953 C.ar      1 <0>         0.1249
      6 C6         -0.5689   -2.8718    1.5080 C.ar      1 <0>        -0.0348
      7 C7         -0.7124   -1.4954    1.3522 C.ar      1 <0>        -0.0888
      8 C8         -0.2937   -3.4454    2.8488 C.2       1 <0>         0.1187
      9 C9         -0.0553   -2.7255    4.0245 C.2       1 <0>        -0.1753
     10 C10         0.1475   -3.6717    5.0107 C.2       1 <0>        -0.0632
     11 N1          0.0255   -4.8878    4.4008 N.pl3     1 <0>        -0.3339
     12 H1          0.1177   -5.7454    4.8448 H         1 <0>         0.4535
     13 N2         -0.2345   -4.7272    3.1522 N.2       1 <0>        -0.2220
     14 C11         0.4045   -2.9775    6.2775 C.2       1 <0>         0.5983
     15 O1          0.6224   -3.5287    7.3395 O.2       1 <0>        -0.5171
     16 N3          0.3653   -1.6449    6.0978 N.am      1 <0>        -0.5897
     17 C12         0.0759   -1.3793    4.6826 C.3       1 <0>         0.2500
     18 H2         -0.8567   -0.8230    4.5880 H         1 <0>         0.1114
     19 C13         1.2082   -0.6051    4.0585 C.ar      1 <0>        -0.0583
     20 C14         2.4809   -1.1447    4.0298 C.ar      1 <0>        -0.0384
     21 C15         3.5203   -0.4355    3.4583 C.ar      1 <0>        -0.1021
     22 C16         3.2876    0.8149    2.9140 C.ar      1 <0>        -0.0192
     23 C17         2.0132    1.3550    2.9423 C.ar      1 <0>        -0.0269
     24 C18         0.9728    0.6415    3.5102 C.ar      1 <0>        -0.0772
     25 Cl1         1.7196    2.9242    2.2602 Cl        1 <0>        -0.0504
     26 Cl2         4.5929    1.7064    2.1964 Cl        1 <0>        -0.0521
     27 C19         0.5753   -0.6324    7.1355 C.3       1 <0>         0.1409
     28 C20         2.0755   -0.3958    7.3211 C.3       1 <0>         0.0544
     29 O2          2.6068    0.2322    6.1527 O.3       1 <0>        -0.5567
     30 O3         -0.5366   -5.0537    0.5370 O.3       1 <0>        -0.4778
     31 C21        -1.0586   -4.0660   -2.0558 C.3       1 <0>        -0.1133
     32 H3         -0.1665    0.9710   -0.2761 H         1 <0>         0.0736
     33 H4         -1.8200    0.7234   -0.8867 H         1 <0>         0.0688
     34 H5         -1.5394    0.9484    0.8566 H         1 <0>         0.0672
     35 H6         -1.2858   -1.3793   -1.9699 H         1 <0>         0.1284
     36 H7         -0.6228   -0.8423    2.2076 H         1 <0>         0.1255
     37 H8          2.6629   -2.1208    4.4547 H         1 <0>         0.1212
     38 H9          4.5143   -0.8573    3.4368 H         1 <0>         0.1374
     39 H10        -0.0224    1.0605    3.5291 H         1 <0>         0.1382
     40 H11         0.0948    0.2992    6.8367 H         1 <0>         0.0987
     41 H12         0.1433   -0.9792    8.0742 H         1 <0>         0.1028
     42 H13         2.2376    0.2482    8.1854 H         1 <0>         0.0614
     43 H14         2.5769   -1.3505    7.4803 H         1 <0>         0.0508
     44 H15         3.5556    0.4127    6.2001 H         1 <0>         0.3755
     45 H16         0.3728   -5.3653    0.4327 H         1 <0>         0.3867
     46 H17        -0.0781   -4.1923   -2.5150 H         1 <0>         0.0697
     47 H18        -1.4423   -5.0379   -1.7454 H         1 <0>         0.0746
     48 H19        -1.7427   -3.6187   -2.7769 H         1 <0>         0.0682
@<TRIPOS>BOND
     1    1    2 1
     2    1   32 1
     3    1   33 1
     4    1   34 1
     5    2    7 ar
     6    2    3 ar
     7    3    4 ar
     8    3   35 1
     9    4    5 ar
    10    4   31 1
    11    5    6 ar
    12    5   30 1
    13    6    7 ar
    14    6    8 1
    15    7   36 1
    16    8   13 2
    17    8    9 1
    18    9   17 1
    19    9   10 2
    20   10   11 1
    21   10   14 1
    22   11   12 1
    23   11   13 1
    24   14   15 2
    25   14   16 am
    26   16   17 1
    27   16   27 1
    28   17   18 1
    29   17   19 1
    30   19   24 ar
    31   19   20 ar
    32   20   21 ar
    33   20   37 1
    34   21   22 ar
    35   21   38 1
    36   22   23 ar
    37   22   26 1
    38   23   24 ar
    39   23   25 1
    40   24   39 1
    41   27   28 1
    42   27   40 1
    43   27   41 1
    44   28   29 1
    45   28   42 1
    46   28   43 1
    47   29   44 1
    48   30   45 1
    49   31   46 1
    50   31   47 1
    51   31   48 1
@<TRIPOS>MOLECULE
ZINC24956961
   39    40     0     0     0
SMALL
USER_CHARGES
N-[(1R)-2-ethylamino-1-methyl-2-oxo-ethyl]-3-(4-fluorophenyl)-1H-pyrazole-4-carboxamide
@<TRIPOS>ATOM
      1 C1          7.7010   -6.0024   -1.3907 C.3       1 <0>        -0.1675
      2 C2          7.1623   -4.5704   -1.3783 C.3       1 <0>         0.1154
      3 N1          5.8244   -4.5570   -0.7816 N.am      1 <0>        -0.7359
      4 C3          5.1500   -3.3959   -0.6652 C.2       1 <0>         0.5134
      5 O1          5.6507   -2.3622   -1.0544 O.2       1 <0>        -0.5424
      6 C4          3.7738   -3.3822   -0.0513 C.3       1 <0>         0.1314
      7 H1          3.0880   -3.9892   -0.6605 H         1 <0>         0.1157
      8 C5          3.8495   -3.9110    1.3824 C.3       1 <0>        -0.1591
      9 N2          3.2580   -2.0111   -0.0395 N.am      1 <0>        -0.7261
     10 C6          1.9283   -1.7913   -0.0255 C.2       1 <0>         0.5997
     11 O2          1.1567   -2.7313   -0.0228 O.2       1 <0>        -0.5389
     12 C7          1.4098   -0.4129   -0.0136 C.2       1 <0>        -0.2880
     13 C8          2.1527    0.7498   -0.0145 C.2       1 <0>         0.1042
     14 N3          1.2988    1.7843   -0.0008 N.pl3     1 <0>        -0.4696
     15 H2          1.6833    2.8149    0.0011 H         1 <0>         0.4779
     16 N4         -0.0157    1.3095    0.0092 N.2       1 <0>        -0.2697
     17 C9          0.0021   -0.0041    0.0020 C.2       1 <0>         0.1711
     18 C10        -1.1775   -0.9025    0.0085 C.ar      1 <0>        -0.0428
     19 C11        -1.1441   -2.1053   -0.6953 C.ar      1 <0>        -0.0233
     20 C12        -2.2424   -2.9401   -0.6829 C.ar      1 <0>        -0.1627
     21 C13        -3.3812   -2.5798    0.0193 C.ar      1 <0>         0.1126
     22 C14        -3.4207   -1.3829    0.7163 C.ar      1 <0>        -0.1668
     23 C15        -2.3254   -0.5441    0.7135 C.ar      1 <0>        -0.0578
     24 F1         -4.4564   -3.3977    0.0241 F         1 <0>        -0.1391
     25 H3          8.7056   -6.0124   -1.8388 H         1 <0>         0.0754
     26 H4          7.0293   -6.6417   -1.9823 H         1 <0>         0.0637
     27 H5          7.7554   -6.3826   -0.3599 H         1 <0>         0.0635
     28 H6          7.8340   -3.9311   -0.7867 H         1 <0>         0.0671
     29 H7          7.1079   -4.1902   -2.4091 H         1 <0>         0.0669
     30 H8          5.3702   -5.4946   -0.4286 H         1 <0>         0.4247
     31 H9          2.8449   -3.9010    1.8304 H         1 <0>         0.0770
     32 H10         4.5212   -3.2717    1.9740 H         1 <0>         0.0636
     33 H11         4.2368   -4.9405    1.3735 H         1 <0>         0.0706
     34 H12         3.9559   -1.1609   -0.0421 H         1 <0>         0.4258
     35 H13         3.2306    0.8154   -0.0244 H         1 <0>         0.1878
     36 H14        -0.2583   -2.3850   -1.2463 H         1 <0>         0.1525
     37 H15        -2.2160   -3.8739   -1.2248 H         1 <0>         0.1376
     38 H16        -4.3105   -1.1061    1.2623 H         1 <0>         0.1377
     39 H17        -2.3573    0.3889    1.2565 H         1 <0>         0.1343
@<TRIPOS>BOND
     1    1    2 1
     2    1   25 1
     3    1   26 1
     4    1   27 1
     5    2    3 1
     6    2   28 1
     7    2   29 1
     8    3    4 am
     9    3   30 1
    10    4    5 2
    11    4    6 1
    12    6    7 1
    13    6    8 1
    14    6    9 1
    15    8   31 1
    16    8   32 1
    17    8   33 1
    18    9   10 am
    19    9   34 1
    20   10   11 2
    21   10   12 1
    22   12   17 1
    23   12   13 2
    24   13   14 1
    25   13   35 1
    26   14   15 1
    27   14   16 1
    28   16   17 2
    29   17   18 1
    30   18   23 ar
    31   18   19 ar
    32   19   20 ar
    33   19   36 1
    34   20   21 ar
    35   20   37 1
    36   21   22 ar
    37   21   24 1
    38   22   23 ar
    39   22   38 1
    40   23   39 1
@<TRIPOS>MOLECULE
ZINC41068033
   36    37     0     0     0
SMALL
USER_CHARGES

@<TRIPOS>ATOM
      1 C1         -0.0187    1.5258    0.0104 C.3       1 <0>        -0.1769
      2 C2          0.0021   -0.0041    0.0020 C.3       1 <0>         0.1272
      3 H1         -1.0205   -0.3814    0.0098 H         1 <0>         0.0962
      4 C3          0.7421   -0.5109    1.2415 C.3       1 <0>         0.1223
      5 N1          0.8664   -1.9690    1.1738 N.am      1 <0>        -0.6170
      6 C4         -0.1221   -2.9104    1.7130 C.3       1 <0>         0.0991
      7 C5          0.1934   -4.2670    1.0448 C.3       1 <0>        -0.1355
      8 C6          1.6952   -4.1121    0.7106 C.3       1 <0>        -0.1594
      9 C7          1.8977   -2.6167    0.6048 C.2       1 <0>         0.5176
     10 O1          2.8530   -2.0802    0.0847 O.2       1 <0>        -0.5319
     11 N2          0.6878   -0.4765   -1.2033 N.pl3     1 <0>        -1.1037
     12 S1         -0.1875   -0.8749   -2.5515 S.o2      1 <0>         2.7247
     13 O2          0.7512   -1.2650   -3.5445 O.2       1 <0>        -0.9485
     14 O3         -1.2362   -1.7295   -2.1169 O.2       1 <0>        -0.9459
     15 C8         -0.9505    0.6032   -3.1327 C.2       1 <0>        -0.7393
     16 C9         -0.4813    1.5123   -4.0222 C.2       1 <0>        -0.0400
     17 C10        -1.2639    2.6127   -4.3333 C.2       1 <0>         0.1455
     18 C11        -2.4773    2.7443   -3.7359 C.2       1 <0>        -0.2410
     19 S2         -2.5443    1.2861   -2.7084 S.3       1 <0>         0.1691
     20 N3         -0.8096    3.5778   -5.2521 N.pl3     1 <0>        -0.8753
     21 H2          1.0039    1.9031    0.0027 H         1 <0>         0.0680
     22 H3         -0.5459    1.8868   -0.8726 H         1 <0>         0.0659
     23 H4         -0.5289    1.8773    0.9072 H         1 <0>         0.0753
     24 H5          1.7350   -0.0630    1.2804 H         1 <0>         0.0925
     25 H6          0.1838   -0.2350    2.1361 H         1 <0>         0.0973
     26 H7         -0.0167   -2.9893    2.7951 H         1 <0>         0.0746
     27 H8         -1.1305   -2.5878    1.4541 H         1 <0>         0.0832
     28 H9          0.0314   -5.0911    1.7396 H         1 <0>         0.0926
     29 H10        -0.3962   -4.4016    0.1380 H         1 <0>         0.0869
     30 H11         2.3087   -4.5285    1.5095 H         1 <0>         0.1061
     31 H12         1.9261   -4.5937   -0.2396 H         1 <0>         0.1030
     32 H13         1.6545   -0.5560   -1.2117 H         1 <0>         0.4274
     33 H14         0.4876    1.3812   -4.4810 H         1 <0>         0.1475
     34 H15        -3.2127    3.5262   -3.8553 H         1 <0>         0.1908
     35 H16         0.0581    3.4757   -5.6735 H         1 <0>         0.3992
     36 H17        -1.3643    4.3449   -5.4638 H         1 <0>         0.4023
@<TRIPOS>BOND
     1    1    2 1
     2    1   21 1
     3    1   22 1
     4    1   23 1
     5    2    3 1
     6    2    4 1
     7    2   11 1
     8    4    5 1
     9    4   24 1
    10    4   25 1
    11    5    9 am
    12    5    6 1
    13    6    7 1
    14    6   26 1
    15    6   27 1
    16    7    8 1
    17    7   28 1
    18    7   29 1
    19    8    9 1
    20    8   30 1
    21    8   31 1
    22    9   10 2
    23   11   12 1
    24   11   32 1
    25   12   13 2
    26   12   14 2
    27   12   15 1
    28   15   19 1
    29   15   16 2
    30   16   17 1
    31   16   33 1
    32   17   18 2
    33   17   20 1
    34   18   19 1
    35   18   34 1
    36   20   35 1
    37   20   36 1
@<TRIPOS>MOLECULE
ZINC49175311
   30    31     0     0     0
SMALL
USER_CHARGES

@<TRIPOS>ATOM
      1 C1         -0.0178    1.4608    0.0101 C.3       1 <0>         0.0850
      2 N1          0.0021   -0.0041    0.0020 N.am      1 <0>        -0.7271
      3 C2          0.5851   -0.6645   -1.0180 C.2       1 <0>         0.5085
      4 O1          1.0933   -0.0461   -1.9292 O.2       1 <0>        -0.5372
      5 C3          0.6055   -2.1713   -1.0263 C.3       1 <0>         0.1013
      6 N2          1.2912   -2.6438   -2.2316 N.am      1 <0>        -0.7167
      7 C4          1.4303   -3.9659   -2.4533 C.2       1 <0>         0.5902
      8 O2          0.9864   -4.7669   -1.6526 O.2       1 <0>        -0.4930
      9 C5          2.1186   -4.4402   -3.6633 C.2       1 <0>        -0.0046
     10 C6          2.3357   -5.7569   -4.0345 C.2       1 <0>        -0.1269
     11 C7          3.0240   -5.6897   -5.2492 C.2       1 <0>         0.0956
     12 N3          3.1876   -4.4266   -5.5488 N.2       1 <0>        -0.2522
     13 N4          2.6676   -3.6701   -4.6504 N.pl3     1 <0>        -0.3662
     14 H1          2.6671   -2.7003   -4.6683 H         1 <0>         0.4520
     15 C8          3.4943   -6.8639   -6.0684 C.3       1 <0>        -0.0891
     16 C9          4.4043   -6.5724   -7.2634 C.3       1 <0>        -0.1609
     17 C10         2.9516   -6.9941   -7.4930 C.3       1 <0>        -0.1589
     18 Br1         1.8122   -7.3137   -3.0975 Br        1 <0>         0.0255
     19 H2          1.0048    1.8381    0.0023 H         1 <0>         0.0635
     20 H3         -0.5450    1.8219   -0.8730 H         1 <0>         0.0635
     21 H4         -0.5280    1.8123    0.9069 H         1 <0>         0.0811
     22 H5         -0.4044   -0.4986    0.7308 H         1 <0>         0.4080
     23 H6          1.1327   -2.5324   -0.1432 H         1 <0>         0.1079
     24 H7         -0.4171   -2.5486   -1.0185 H         1 <0>         0.1079
     25 H8          1.6452   -2.0051   -2.8701 H         1 <0>         0.4073
     26 H9          3.6731   -7.7839   -5.5119 H         1 <0>         0.1298
     27 H10         4.6627   -5.5313   -7.4570 H         1 <0>         0.1031
     28 H11         5.1820   -7.3006   -7.4932 H         1 <0>         0.1023
     29 H12         2.7736   -7.9998   -7.8738 H         1 <0>         0.1043
     30 H13         2.2543   -6.2305   -7.8376 H         1 <0>         0.0962
@<TRIPOS>BOND
     1    1    2 1
     2    1   19 1
     3    1   20 1
     4    1   21 1
     5    2    3 am
     6    2   22 1
     7    3    4 2
     8    3    5 1
     9    5    6 1
    10    5   23 1
    11    5   24 1
    12    6    7 am
    13    6   25 1
    14    7    8 2
    15    7    9 1
    16    9   13 1
    17    9   10 2
    18   10   11 1
    19   10   18 1
    20   11   12 2
    21   11   15 1
    22   12   13 1
    23   13   14 1
    24   15   17 1
    25   15   16 1
    26   15   26 1
    27   16   17 1
    28   16   27 1
    29   16   28 1
    30   17   29 1
    31   17   30 1
@<TRIPOS>MOLECULE
ZINC53041856
   37    38     0     0     0
SMALL
USER_CHARGES

@<TRIPOS>ATOM
      1 C1         -1.2817    0.5267    0.2623 C.3       1 <0>        -0.0788
      2 C2         -1.0629   -0.9568    0.1132 C.2       1 <0>         0.0038
      3 C3         -2.0242   -1.8787   -0.0754 C.2       1 <0>        -0.2179
      4 C4         -1.3776   -3.1331   -0.1610 C.2       1 <0>        -0.1726
      5 C5         -0.0599   -2.9027   -0.0196 C.2       1 <0>        -0.0504
      6 O1          0.1253   -1.5822    0.1404 O.3       1 <0>        -0.1697
      7 C6          1.0250   -3.9484   -0.0425 C.3       1 <0>         0.2057
      8 N1          1.4964   -4.1330   -1.4172 N.am      1 <0>        -0.7226
      9 C7          2.4717   -5.0250   -1.6811 C.2       1 <0>         0.5561
     10 O2          2.9602   -5.6763   -0.7785 O.2       1 <0>        -0.5151
     11 C8          2.9475   -5.2113   -3.0685 C.ar      1 <0>        -0.0829
     12 C9          2.3028   -4.5634   -4.1236 C.ar      1 <0>        -0.1031
     13 C10         2.7520   -4.7411   -5.4156 C.ar      1 <0>        -0.0335
     14 C11         3.8388   -5.5599   -5.6671 C.ar      1 <0>        -0.6491
     15 C12         4.4821   -6.2049   -4.6260 C.ar      1 <0>        -0.0271
     16 C13         4.0465   -6.0312   -3.3284 C.ar      1 <0>        -0.0401
     17 C14         4.7521   -6.7300   -2.1949 C.3       1 <0>        -0.1255
     18 S1          4.4054   -5.7824   -7.3206 S.o2      1 <0>         2.7011
     19 O3          5.0958   -7.0241   -7.3497 O.2       1 <0>        -0.9576
     20 O4          3.3000   -5.5053   -8.1694 O.2       1 <0>        -0.9583
     21 N2          5.5338   -4.6064   -7.6139 N.pl3     1 <0>        -1.2485
     22 H1         -0.3212    1.0239    0.3977 H         1 <0>         0.0775
     23 H2         -1.7683    0.9140   -0.6328 H         1 <0>         0.0888
     24 H3         -1.9139    0.7154    1.1300 H         1 <0>         0.0890
     25 H4         -3.0862   -1.6958   -0.1471 H         1 <0>         0.1520
     26 H5         -1.8508   -4.0922   -0.3109 H         1 <0>         0.1520
     27 H6          1.8549   -3.6248    0.5858 H         1 <0>         0.0896
     28 H7          0.6292   -4.8910    0.3356 H         1 <0>         0.1045
     29 H8          1.1066   -3.6133   -2.1375 H         1 <0>         0.4044
     30 H9          1.4540   -3.9246   -3.9288 H         1 <0>         0.1376
     31 H10         2.2541   -4.2404   -6.2328 H         1 <0>         0.1511
     32 H11         5.3296   -6.8429   -4.8290 H         1 <0>         0.1525
     33 H12         4.2238   -7.6517   -1.9512 H         1 <0>         0.0823
     34 H13         5.7740   -6.9649   -2.4928 H         1 <0>         0.0658
     35 H14         4.7690   -6.0789   -1.3209 H         1 <0>         0.0983
     36 H15         5.7587   -3.9663   -6.9206 H         1 <0>         0.4174
     37 H16         5.9699   -4.5577   -8.4789 H         1 <0>         0.4230
@<TRIPOS>BOND
     1    1    2 1
     2    1   22 1
     3    1   23 1
     4    1   24 1
     5    2    6 1
     6    2    3 2
     7    3    4 1
     8    3   25 1
     9    4    5 2
    10    4   26 1
    11    5    6 1
    12    5    7 1
    13    7    8 1
    14    7   27 1
    15    7   28 1
    16    8    9 am
    17    8   29 1
    18    9   10 2
    19    9   11 1
    20   11   16 ar
    21   11   12 ar
    22   12   13 ar
    23   12   30 1
    24   13   14 ar
    25   13   31 1
    26   14   15 ar
    27   14   18 1
    28   15   16 ar
    29   15   32 1
    30   16   17 1
    31   17   33 1
    32   17   34 1
    33   17   35 1
    34   18   19 2
    35   18   20 2
    36   18   21 1
    37   21   36 1
    38   21   37 1
@<TRIPOS>MOLECULE
ZINC66104760
   39    40     0     0     0
SMALL
USER_CHARGES

@<TRIPOS>ATOM
      1 C1         -0.0254    1.4091   -0.4107 C.3       1 <0>        -0.1536
      2 C2          0.0233   -0.1141   -0.2745 C.3       1 <0>        -0.1264
      3 C3          0.6815   -0.4864    1.0555 C.3       1 <0>        -0.1173
      4 C4          0.6412   -2.0051    1.2370 C.3       1 <0>         0.1270
      5 H1          1.0939   -2.4867    0.3703 H         1 <0>         0.1173
      6 C5          1.4069   -2.3831    2.4787 C.2       1 <0>         0.4925
      7 O1          0.8125   -2.6212    3.5087 O.2       1 <0>        -0.5157
      8 N1          2.7522   -2.4567    2.4446 N.am      1 <0>        -0.6087
      9 C6          3.5092   -2.8305    3.6487 C.3       1 <0>         0.1152
     10 C7          4.2109   -4.1709    3.3806 C.3       1 <0>        -0.0589
     11 C8          4.7992   -4.1373    2.0077 C.2       1 <0>        -0.1418
     12 C9          4.5117   -3.2744    0.9956 C.2       1 <0>        -0.1470
     13 C10         5.1998   -3.4629   -0.2019 C.2       1 <0>        -0.1475
     14 C11         6.1053   -4.4618   -0.3119 C.2       1 <0>        -0.1691
     15 S1          6.0307   -5.2062    1.3103 S.3       1 <0>         0.0520
     16 C12         3.4826   -2.1705    1.2024 C.3       1 <0>         0.1637
     17 N2         -0.7502   -2.4444    1.3685 N.pl3     1 <0>        -1.0981
     18 S2         -1.2262   -3.8920    0.7202 S.o2      1 <0>         2.7955
     19 O2         -2.5929   -4.0635    1.0694 O.2       1 <0>        -0.9756
     20 O3         -0.7777   -3.9002   -0.6281 O.2       1 <0>        -0.9763
     21 N3         -0.3839   -5.0813    1.5064 N.pl3     1 <0>        -1.2560
     22 H2          0.9882    1.8090   -0.3824 H         1 <0>         0.0555
     23 H3         -0.4943    1.6743   -1.3582 H         1 <0>         0.0587
     24 H4         -0.6048    1.8290    0.4116 H         1 <0>         0.0556
     25 H5         -0.9903   -0.5140   -0.3028 H         1 <0>         0.0694
     26 H6          0.6027   -0.5340   -1.0967 H         1 <0>         0.0697
     27 H7          1.7176   -0.1479    1.0555 H         1 <0>         0.0840
     28 H8          0.1431   -0.0083    1.8738 H         1 <0>         0.0827
     29 H9          4.2525   -2.0640    3.8680 H         1 <0>         0.0817
     30 H10         2.8281   -2.9348    4.4932 H         1 <0>         0.1077
     31 H11         5.0029   -4.3221    4.1142 H         1 <0>         0.0967
     32 H12         3.4867   -4.9827    3.4484 H         1 <0>         0.0897
     33 H13         5.0098   -2.8115   -1.0422 H         1 <0>         0.1359
     34 H14         6.7145   -4.7378   -1.1599 H         1 <0>         0.1891
     35 H15         2.7886   -2.1518    0.3621 H         1 <0>         0.0991
     36 H16         3.9890   -1.2089    1.2852 H         1 <0>         0.0911
     37 H17        -1.3926   -1.8874    1.8354 H         1 <0>         0.4280
     38 H18        -0.7767   -5.9612    1.6179 H         1 <0>         0.4229
     39 H19         0.5024   -4.8981    1.8555 H         1 <0>         0.4112
@<TRIPOS>BOND
     1    1    2 1
     2    1   22 1
     3    1   23 1
     4    1   24 1
     5    2    3 1
     6    2   25 1
     7    2   26 1
     8    3    4 1
     9    3   27 1
    10    3   28 1
    11    4    5 1
    12    4    6 1
    13    4   17 1
    14    6    7 2
    15    6    8 am
    16    8   16 1
    17    8    9 1
    18    9   10 1
    19    9   29 1
    20    9   30 1
    21   10   11 1
    22   10   31 1
    23   10   32 1
    24   11   15 1
    25   11   12 2
    26   12   13 1
    27   12   16 1
    28   13   14 2
    29   13   33 1
    30   14   15 1
    31   14   34 1
    32   16   35 1
    33   16   36 1
    34   17   18 1
    35   17   37 1
    36   18   19 2
    37   18   20 2
    38   18   21 1
    39   21   38 1
    40   21   39 1
@<TRIPOS>MOLECULE
ZINC36733913
   38    40     0     0     0
SMALL
USER_CHARGES

@<TRIPOS>ATOM
      1 C1          2.0486    0.5743   -0.2452 C.3       1 <0>        -0.0939
      2 C2          0.9015   -0.3944   -0.1155 C.2       1 <0>         0.0999
      3 C3         -0.0109   -0.6904   -1.0761 C.2       1 <0>        -0.0173
      4 C4         -0.9021   -1.6347   -0.5459 C.2       1 <0>         0.0959
      5 N1         -0.5408   -1.8964    0.6840 N.2       1 <0>        -0.2843
      6 N2          0.5962   -1.1344    0.9816 N.pl3     1 <0>        -0.4706
      7 H1          1.0786   -1.1335    1.8232 H         1 <0>         0.4444
      8 C5         -2.0756   -2.2437   -1.2692 C.3       1 <0>        -0.0711
      9 N3         -0.0550   -0.1461   -2.3735 N.am      1 <0>        -0.6496
     10 C6          0.3542   -0.8807   -3.4268 C.2       1 <0>         0.4994
     11 O1          0.6709   -2.0412   -3.2705 O.2       1 <0>        -0.4930
     12 C7          0.4182   -0.2604   -4.7987 C.3       1 <0>         0.1411
     13 H2          1.1009    0.5884   -4.7589 H         1 <0>         0.1169
     14 C8         -0.9907    0.2630   -5.1641 C.3       1 <0>        -0.0690
     15 S1         -1.1084   -0.3070   -6.9200 S.3       1 <0>        -0.2543
     16 C9         -0.0154   -1.7740   -6.7118 C.3       1 <0>         0.1811
     17 N4          0.9662   -1.2518   -5.7297 N.am      1 <0>        -0.6123
     18 C10         2.1657   -1.8315   -6.0058 C.2       1 <0>         0.5486
     19 O2          3.1178   -1.8414   -5.2547 O.2       1 <0>        -0.5018
     20 C11         2.1455   -2.4616   -7.3792 C.3       1 <0>        -0.1405
     21 C12         0.8058   -2.0091   -7.9899 C.3       1 <0>        -0.1096
     22 C13        -0.7650   -3.0224   -6.2422 C.3       1 <0>        -0.1369
     23 H3          2.9271    0.0491   -0.6202 H         1 <0>         0.0847
     24 H4          1.7763    1.3690   -0.9398 H         1 <0>         0.0856
     25 H5          2.2722    1.0055    0.7306 H         1 <0>         0.0764
     26 H6         -1.7951   -3.2234   -1.6562 H         1 <0>         0.0794
     27 H7         -2.9119   -2.3517   -0.5785 H         1 <0>         0.0765
     28 H8         -2.3684   -1.5967   -2.0960 H         1 <0>         0.0712
     29 H9         -0.3798    0.7578   -2.5095 H         1 <0>         0.4041
     30 H10        -1.7579   -0.2024   -4.5453 H         1 <0>         0.1092
     31 H11        -1.0380    1.3499   -5.0974 H         1 <0>         0.1342
     32 H12         2.9776   -2.0935   -7.9793 H         1 <0>         0.1150
     33 H13         2.1831   -3.5481   -7.3002 H         1 <0>         0.1130
     34 H14         0.3684   -2.7992   -8.6002 H         1 <0>         0.1017
     35 H15         0.9181   -1.0880   -8.5618 H         1 <0>         0.1002
     36 H16        -1.5181   -3.2937   -6.9820 H         1 <0>         0.0837
     37 H17        -0.0606   -3.8455   -6.1221 H         1 <0>         0.0744
     38 H18        -1.2503   -2.8173   -5.2880 H         1 <0>         0.0674
@<TRIPOS>BOND
     1    1    2 1
     2    1   23 1
     3    1   24 1
     4    1   25 1
     5    2    6 1
     6    2    3 2
     7    3    4 1
     8    3    9 1
     9    4    5 2
    10    4    8 1
    11    5    6 1
    12    6    7 1
    13    8   26 1
    14    8   27 1
    15    8   28 1
    16    9   10 am
    17    9   29 1
    18   10   11 2
    19   10   12 1
    20   12   13 1
    21   12   17 1
    22   12   14 1
    23   14   15 1
    24   14   30 1
    25   14   31 1
    26   15   16 1
    27   16   21 1
    28   16   17 1
    29   16   22 1
    30   17   18 am
    31   18   19 2
    32   18   20 1
    33   20   21 1
    34   20   32 1
    35   20   33 1
    36   21   34 1
    37   21   35 1
    38   22   36 1
    39   22   37 1
    40   22   38 1
@<TRIPOS>MOLECULE
ZINC40380803
   39    39     0     0     0
SMALL
USER_CHARGES

@<TRIPOS>ATOM
      1 C1         -0.0187    1.5258    0.0104 C.3       1 <0>        -0.1448
      2 C2          0.0021   -0.0041    0.0020 C.3       1 <0>        -0.0522
      3 C3          0.7421   -0.5109    1.2415 C.3       1 <0>        -0.1442
      4 C4         -1.4333   -0.5336    0.0129 C.3       1 <0>        -0.1281
      5 S1          0.8511   -0.5891   -1.4904 S.3       1 <0>        -0.1730
      6 C5          2.5167    0.1163   -1.3528 C.3       1 <0>        -0.1309
      7 C6          3.3381   -0.2984   -2.5463 C.2       1 <0>         0.5349
      8 O1          2.8481   -1.0006   -3.4052 O.2       1 <0>        -0.5115
      9 N1          4.6171    0.1111   -2.6592 N.am      1 <0>        -0.6104
     10 C7          5.2259    0.9572   -1.6231 C.3       1 <0>         0.0929
     11 C8          6.5033    0.2735   -1.1202 C.3       1 <0>         0.1014
     12 N2          7.3145   -0.1184   -2.2814 N.pl3     1 <0>        -1.0036
     13 C9          6.7058   -0.9645   -3.3175 C.3       1 <0>         0.1029
     14 C10         5.4300   -0.2855   -3.8176 C.3       1 <0>         0.1006
     15 S2          8.8861    0.3847   -2.4201 S.o2      1 <0>         2.7948
     16 O2          9.2033    0.3488   -3.8048 O.2       1 <0>        -0.9764
     17 O3          9.0039    1.5679   -1.6420 O.2       1 <0>        -0.9782
     18 N3          9.8330   -0.7596   -1.6878 N.pl3     1 <0>        -1.2624
     19 H1          1.0039    1.9031    0.0027 H         1 <0>         0.0534
     20 H2         -0.5459    1.8868   -0.8726 H         1 <0>         0.0695
     21 H3         -0.5289    1.8773    0.9072 H         1 <0>         0.0666
     22 H4          0.2319   -0.1594    2.1383 H         1 <0>         0.0665
     23 H5          0.7568   -1.6008    1.2356 H         1 <0>         0.0691
     24 H6          1.7647   -0.1336    1.2338 H         1 <0>         0.0531
     25 H7         -1.9605   -0.1726   -0.8702 H         1 <0>         0.0663
     26 H8         -1.4185   -1.6235    0.0069 H         1 <0>         0.0661
     27 H9         -1.9435   -0.1821    0.9097 H         1 <0>         0.0726
     28 H10         2.4491    1.2036   -1.3183 H         1 <0>         0.1103
     29 H11         2.9911   -0.2473   -0.4412 H         1 <0>         0.1099
     30 H12         5.4740    1.9310   -2.0452 H         1 <0>         0.0836
     31 H13         4.5275    1.0817   -0.7955 H         1 <0>         0.0982
     32 H14         7.0680    0.9667   -0.4967 H         1 <0>         0.1102
     33 H15         6.2408   -0.6121   -0.5416 H         1 <0>         0.0790
     34 H16         7.4041   -1.0890   -4.1450 H         1 <0>         0.1103
     35 H17         6.4576   -1.9383   -2.8953 H         1 <0>         0.0788
     36 H18         4.8664   -0.9815   -4.4389 H         1 <0>         0.1100
     37 H19         5.6930    0.5978   -4.3995 H         1 <0>         0.0788
     38 H20         9.4244   -1.5415   -1.2846 H         1 <0>         0.4148
     39 H21        10.7962   -0.6479   -1.6619 H         1 <0>         0.4211
@<TRIPOS>BOND
     1    1    2 1
     2    1   19 1
     3    1   20 1
     4    1   21 1
     5    2    3 1
     6    2    4 1
     7    2    5 1
     8    3   22 1
     9    3   23 1
    10    3   24 1
    11    4   25 1
    12    4   26 1
    13    4   27 1
    14    5    6 1
    15    6    7 1
    16    6   28 1
    17    6   29 1
    18    7    8 2
    19    7    9 am
    20    9   14 1
    21    9   10 1
    22   10   11 1
    23   10   30 1
    24   10   31 1
    25   11   12 1
    26   11   32 1
    27   11   33 1
    28   12   13 1
    29   12   15 1
    30   13   14 1
    31   13   34 1
    32   13   35 1
    33   14   36 1
    34   14   37 1
    35   15   16 2
    36   15   17 2
    37   15   18 1
    38   18   38 1
    39   18   39 1
@<TRIPOS>MOLECULE
ZINC48583061
   40    41     0     0     0
SMALL
USER_CHARGES

@<TRIPOS>ATOM
      1 C1          0.0084    1.5278   -0.0058 C.3       1 <0>        -0.1423
      2 C2          0.0157   -0.0021   -0.0069 C.3       1 <0>         0.1426
      3 H1         -1.0055   -0.3724    0.0836 H         1 <0>         0.0782
      4 C3          0.6329   -0.5118   -1.3131 C.3       1 <0>        -0.1325
      5 C4          0.7649   -2.0352   -1.2499 C.3       1 <0>        -0.1024
      6 C5          1.6918   -2.4211   -0.0949 C.3       1 <0>        -0.1253
      7 H2          2.6675   -1.9578   -0.2411 H         1 <0>         0.1056
      8 C6          1.0866   -1.9331    1.2251 C.3       1 <0>         0.1145
      9 N1          0.8190   -0.4917    1.1216 N.am      1 <0>        -0.6018
     10 C7          1.3040    0.3650    2.0420 C.2       1 <0>         0.5379
     11 O1          0.9935    1.5367    2.0030 O.2       1 <0>        -0.5088
     12 C8          2.2323   -0.1329    3.1198 C.3       1 <0>        -0.1413
     13 S1          2.7072    1.2489    4.1947 S.3       1 <0>         0.0515
     14 C9          3.7775    0.5140    5.3859 C.2       1 <0>         0.1730
     15 N2          4.1224   -0.7518    5.4310 N.2       1 <0>        -0.4950
     16 C10         4.9489   -0.9502    6.4716 C.2       1 <0>        -0.0186
     17 C11         5.1288    0.2246    7.0988 C.2       1 <0>        -0.0445
     18 N3          4.3919    1.1634    6.4123 N.pl3     1 <0>        -0.4453
     19 C12         4.2862    2.5899    6.7287 C.3       1 <0>         0.0688
     20 C13         1.8475   -3.9195   -0.0541 C.2       1 <0>         0.5237
     21 O2          1.2738   -4.6112   -0.8685 O.2       1 <0>        -0.5336
     22 N4          2.6244   -4.4908    0.8875 N.am      1 <0>        -0.8547
     23 H3          1.0343    1.8960    0.0050 H         1 <0>         0.0656
     24 H4         -0.4979    1.8895   -0.9007 H         1 <0>         0.0501
     25 H5         -0.5162    1.8880    0.8791 H         1 <0>         0.0805
     26 H6         -0.0087   -0.2366   -2.1503 H         1 <0>         0.0848
     27 H7          1.6186   -0.0664   -1.4478 H         1 <0>         0.0704
     28 H8         -0.2180   -2.4786   -1.0905 H         1 <0>         0.0753
     29 H9          1.1811   -2.4028   -2.1879 H         1 <0>         0.0784
     30 H10         0.1537   -2.4629    1.4173 H         1 <0>         0.0830
     31 H11         1.7881   -2.1171    2.0388 H         1 <0>         0.0919
     32 H12         1.7262   -0.8960    3.7111 H         1 <0>         0.1222
     33 H13         3.1243   -0.5604    2.6620 H         1 <0>         0.1218
     34 H14         5.3926   -1.8930    6.7556 H         1 <0>         0.1742
     35 H15         5.7384    0.3997    7.9730 H         1 <0>         0.1800
     36 H16         3.4530    2.7496    7.4130 H         1 <0>         0.0826
     37 H17         5.2108    2.9277    7.1969 H         1 <0>         0.0918
     38 H18         4.1163    3.1538    5.8115 H         1 <0>         0.0909
     39 H19         3.0833   -3.9376    1.5388 H         1 <0>         0.4021
     40 H20         2.7246   -5.4553    0.9138 H         1 <0>         0.4047
@<TRIPOS>BOND
     1    1    2 1
     2    1   23 1
     3    1   24 1
     4    1   25 1
     5    2    3 1
     6    2    9 1
     7    2    4 1
     8    4    5 1
     9    4   26 1
    10    4   27 1
    11    5    6 1
    12    5   28 1
    13    5   29 1
    14    6    7 1
    15    6    8 1
    16    6   20 1
    17    8    9 1
    18    8   30 1
    19    8   31 1
    20    9   10 am
    21   10   11 2
    22   10   12 1
    23   12   13 1
    24   12   32 1
    25   12   33 1
    26   13   14 1
    27   14   18 1
    28   14   15 2
    29   15   16 1
    30   16   17 2
    31   16   34 1
    32   17   18 1
    33   17   35 1
    34   18   19 1
    35   19   36 1
    36   19   37 1
    37   19   38 1
    38   20   21 2
    39   20   22 am
    40   22   39 1
    41   22   40 1
@<TRIPOS>MOLECULE
ZINC53109155
   43    44     0     0     0
SMALL
USER_CHARGES

@<TRIPOS>ATOM
      1 C1          0.7864    0.6360   -1.3471 C.3       1 <0>        -0.1502
      2 C2          0.5356   -0.7350   -0.7161 C.3       1 <0>        -0.0908
      3 H1         -0.5351   -0.9393   -0.7046 H         1 <0>         0.0717
      4 C3          1.2514   -1.8116   -1.5343 C.3       1 <0>        -0.1154
      5 C4          1.0005   -3.1827   -0.9034 C.3       1 <0>        -0.1490
      6 C5          1.5367   -3.1905    0.5296 C.3       1 <0>        -0.1649
      7 C6          0.8209   -2.1139    1.3478 C.3       1 <0>         0.1979
      8 C7          1.0717   -0.7428    0.7168 C.3       1 <0>        -0.1129
      9 C8          1.3571   -2.1216    2.7808 C.3       1 <0>         0.0493
     10 O1          1.2172   -3.4315    3.3346 O.3       1 <0>        -0.5254
     11 N1         -0.6181   -2.3884    1.3633 N.pl3     1 <0>        -1.1032
     12 S1         -1.1647   -3.9255    1.6480 S.o2      1 <0>         2.6226
     13 O2         -0.0530   -4.6069    2.2129 O.2       1 <0>        -0.8848
     14 O3         -2.3627   -3.7522    2.3924 O.2       1 <0>        -0.9496
     15 C9         -1.5413   -4.5980    0.0059 C.3       1 <0>        -0.6459
     16 H2         -0.6196   -4.7152   -0.5640 H         1 <0>         0.1698
     17 C10        -2.4947   -3.6483   -0.7381 C.3       1 <0>        -0.1115
     18 C11        -3.0713   -4.3532   -1.9896 C.3       1 <0>        -0.5708
     19 S2         -3.0385   -6.1271   -1.5051 S.o2      1 <0>         2.3839
     20 O4         -4.3732   -6.5859   -1.3399 O.2       1 <0>        -0.9293
     21 O5         -2.1609   -6.8279   -2.3756 O.2       1 <0>        -0.9270
     22 C12        -2.2475   -5.9761    0.1519 C.3       1 <0>        -0.5690
     23 H3          1.8570    0.8403   -1.3586 H         1 <0>         0.0566
     24 H4          0.4044    0.6416   -2.3680 H         1 <0>         0.0568
     25 H5          0.2764    1.4030   -0.7642 H         1 <0>         0.0561
     26 H6          0.8694   -1.8061   -2.5552 H         1 <0>         0.0654
     27 H7          2.3220   -1.6074   -1.5459 H         1 <0>         0.0675
     28 H8         -0.0701   -3.3870   -0.8918 H         1 <0>         0.0670
     29 H9          1.5105   -3.9497   -1.4863 H         1 <0>         0.0748
     30 H10         1.3580   -4.1673    0.9791 H         1 <0>         0.1135
     31 H11         2.6073   -2.9862    0.5180 H         1 <0>         0.0859
     32 H12         2.1423   -0.5385    0.7053 H         1 <0>         0.0823
     33 H13         0.5618    0.0242    1.2997 H         1 <0>         0.0737
     34 H14         2.4099   -1.8396    2.7763 H         1 <0>         0.0564
     35 H15         0.7929   -1.4101    3.3836 H         1 <0>         0.0486
     36 H16         1.4664   -3.4930    4.2669 H         1 <0>         0.3670
     37 H17        -1.2506   -1.6699    1.2068 H         1 <0>         0.4141
     38 H18        -3.3114   -3.3629   -0.0751 H         1 <0>         0.1026
     39 H19        -1.9498   -2.7554   -1.0445 H         1 <0>         0.1117
     40 H20        -4.0923   -4.0240   -2.1826 H         1 <0>         0.1496
     41 H21        -2.4368   -4.1781   -2.8585 H         1 <0>         0.1449
     42 H22        -1.5238   -6.7743    0.3172 H         1 <0>         0.1588
     43 H23        -2.9948   -5.9540    0.9451 H         1 <0>         0.1513
@<TRIPOS>BOND
     1    1    2 1
     2    1   23 1
     3    1   24 1
     4    1   25 1
     5    2    3 1
     6    2    8 1
     7    2    4 1
     8    4    5 1
     9    4   26 1
    10    4   27 1
    11    5    6 1
    12    5   28 1
    13    5   29 1
    14    6    7 1
    15    6   30 1
    16    6   31 1
    17    7    8 1
    18    7    9 1
    19    7   11 1
    20    8   32 1
    21    8   33 1
    22    9   10 1
    23    9   34 1
    24    9   35 1
    25   10   36 1
    26   11   12 1
    27   11   37 1
    28   12   13 2
    29   12   14 2
    30   12   15 1
    31   15   16 1
    32   15   22 1
    33   15   17 1
    34   17   18 1
    35   17   38 1
    36   17   39 1
    37   18   19 1
    38   18   40 1
    39   18   41 1
    40   19   20 2
    41   19   21 2
    42   19   22 1
    43   22   42 1
    44   22   43 1
@<TRIPOS>MOLECULE
ZINC62383252
   46    47     0     0     0
SMALL
USER_CHARGES

@<TRIPOS>ATOM
      1 C1         -0.9599    1.5577    0.4509 C.3       1 <0>        -0.1334
      2 C2         -0.4888    0.1364    0.2802 C.2       1 <0>         0.2160
      3 C3         -0.3546   -0.3780   -0.9627 C.2       1 <0>        -0.3058
      4 C4          0.0875   -1.7111   -1.1158 C.2       1 <0>         0.3656
      5 O1          0.2180   -2.2013   -2.2286 O.2       1 <0>        -0.5302
      6 C5          0.3772   -2.4689    0.0471 C.2       1 <0>         0.0132
      7 C6          0.2224   -1.8954    1.2642 C.2       1 <0>         0.0533
      8 N1         -0.1997   -0.6086    1.3740 N.pl3     1 <0>        -0.4203
      9 C7         -0.3512   -0.0156    2.7050 C.3       1 <0>         0.0025
     10 C8         -1.7861   -0.1381    3.1491 C.2       1 <0>         0.4771
     11 O2         -2.6061   -0.6714    2.4212 O.co2     1 <0>        -0.6557
     12 O3         -2.1270    0.2960    4.2362 O.co2     1 <0>        -0.6661
     13 C9          0.5264   -2.6900    2.5081 C.3       1 <0>         0.0469
     14 N2          1.8166   -2.2581    3.0620 N.4       1 <0>        -0.3848
     15 C10         2.8895   -2.5940    2.1184 C.3       1 <0>        -0.0061
     16 C11         4.2256   -2.0740    2.6532 C.3       1 <0>        -0.1103
     17 H1          4.1737   -0.9918    2.7722 H         1 <0>         0.0906
     18 C12         4.5142   -2.7243    4.0093 C.3       1 <0>        -0.1271
     19 C13         3.3530   -2.4296    4.9632 C.3       1 <0>        -0.1107
     20 H2          3.2829   -1.3547    5.1301 H         1 <0>         0.0935
     21 C14         2.0492   -2.9364    4.3427 C.3       1 <0>        -0.0088
     22 C15         3.5947   -3.1391    6.2970 C.3       1 <0>        -0.1485
     23 C16         5.3422   -2.4268    1.6685 C.3       1 <0>        -0.1477
     24 O4          0.8050   -3.7565   -0.0584 O.3       1 <0>        -0.4734
     25 H3         -0.0998    2.2273    0.4572 H         1 <0>         0.0894
     26 H4         -1.6208    1.8230   -0.3744 H         1 <0>         0.0979
     27 H5         -1.4999    1.6509    1.3931 H         1 <0>         0.0893
     28 H6         -0.5833    0.2238   -1.8299 H         1 <0>         0.1549
     29 H7          0.2936   -0.5384    3.4113 H         1 <0>         0.0665
     30 H8         -0.0710    1.0371    2.6678 H         1 <0>         0.1118
     31 H9         -0.2591   -2.5252    3.2456 H         1 <0>         0.1474
     32 H10         0.5744   -3.7502    2.2593 H         1 <0>         0.1588
     33 H11         2.9426   -3.6762    1.9995 H         1 <0>         0.1330
     34 H12         2.6811   -2.1331    1.1528 H         1 <0>         0.1271
     35 H13         4.6170   -3.8020    3.8823 H         1 <0>         0.0828
     36 H14         5.4368   -2.3150    4.4208 H         1 <0>         0.0923
     37 H15         1.2204   -2.7283    5.0194 H         1 <0>         0.1335
     38 H16         2.1202   -4.0113    4.1765 H         1 <0>         0.1319
     39 H17         4.5254   -2.7798    6.7362 H         1 <0>         0.0753
     40 H18         2.7679   -2.9289    6.9754 H         1 <0>         0.0698
     41 H19         3.6631   -4.2140    6.1296 H         1 <0>         0.0665
     42 H20         5.1338   -1.9663    0.7027 H         1 <0>         0.0675
     43 H21         6.2936   -2.0561    2.0500 H         1 <0>         0.0748
     44 H22         5.3946   -3.5092    1.5511 H         1 <0>         0.0670
     45 H23         0.8824   -4.0719   -0.9692 H         1 <0>         0.4172
     46 H24         1.8010   -1.2600    3.2091 H         1 <0>         0.4155
@<TRIPOS>BOND
     1    1    2 1
     2    1   25 1
     3    1   26 1
     4    1   27 1
     5    2    8 1
     6    2    3 2
     7    3    4 1
     8    3   28 1
     9    4    5 2
    10    4    6 1
    11    6    7 2
    12    6   24 1
    13    7    8 1
    14    7   13 1
    15    8    9 1
    16    9   10 1
    17    9   29 1
    18    9   30 1
    19   10   11 2
    20   10   12 1
    21   13   14 1
    22   13   31 1
    23   13   32 1
    24   14   21 1
    25   14   15 1
    26   14   46 1
    27   15   16 1
    28   15   33 1
    29   15   34 1
    30   16   17 1
    31   16   18 1
    32   16   23 1
    33   18   19 1
    34   18   35 1
    35   18   36 1
    36   19   20 1
    37   19   21 1
    38   19   22 1
    39   21   37 1
    40   21   38 1
    41   22   39 1
    42   22   40 1
    43   22   41 1
    44   23   42 1
    45   23   43 1
    46   23   44 1
    47   24   45 1
@<TRIPOS>MOLECULE
ZINC23957384
   35    36     0     0     0
SMALL
USER_CHARGES
1-[(2R)-2-(1,3,4-thiadiazol-2-ylsulfanyl)propanoyl]piperidine-4-carboxamide
@<TRIPOS>ATOM
      1 C1         -0.0187    1.5258    0.0104 C.3       1 <0>        -0.1507
      2 C2          0.0021   -0.0041    0.0020 C.3       1 <0>        -0.1389
      3 H1         -1.0417   -0.3041    0.1764 H         1 <0>         0.1328
      4 C3          0.7309   -0.5033    1.2229 C.2       1 <0>         0.5348
      5 O1          1.9109   -0.7754    1.1557 O.2       1 <0>        -0.5209
      6 N1          0.0715   -0.6474    2.3895 N.am      1 <0>        -0.6044
      7 C4         -1.3565   -0.3160    2.4880 C.3       1 <0>         0.0968
      8 C5         -1.5608    0.6671    3.6392 C.3       1 <0>        -0.1261
      9 C6         -0.9613    0.0816    4.9197 C.3       1 <0>        -0.1085
     10 C7          0.5416   -0.1354    4.7285 C.3       1 <0>        -0.1157
     11 C8          0.7684   -1.1330    3.5883 C.3       1 <0>         0.1096
     12 C9         -1.1892    1.0364    6.0631 C.2       1 <0>         0.5204
     13 O2         -0.2432    1.4979    6.6656 O.2       1 <0>        -0.5470
     14 N2         -2.4444    1.3776    6.4162 N.am      1 <0>        -0.8787
     15 S1          0.8493   -0.5878   -1.4872 S.3       1 <0>         0.1624
     16 C10        -0.2660   -0.0066   -2.7213 C.2       1 <0>         0.0168
     17 N3         -1.4057    0.6616   -2.5960 N.2       1 <0>        -0.2898
     18 N4         -2.0867    1.0078   -3.5996 N.2       1 <0>        -0.2711
     19 C11        -1.7184    0.7199   -4.8314 C.2       1 <0>         0.0508
     20 S2         -0.1909   -0.1552   -4.5042 S.3       1 <0>         0.0218
     21 H2         -0.5507    1.8901   -0.8808 H         1 <0>         0.0897
     22 H3          1.0133    1.9066    0.0026 H         1 <0>         0.0742
     23 H4         -0.5336    1.8805    0.9154 H         1 <0>         0.0740
     24 H5         -1.6926    0.1413    1.5457 H         1 <0>         0.0957
     25 H6         -1.9336   -1.2332    2.6767 H         1 <0>         0.0814
     26 H7         -1.0623    1.6185    3.4017 H         1 <0>         0.0774
     27 H8         -2.6369    0.8432    3.7844 H         1 <0>         0.0857
     28 H9         -1.4496   -0.8751    5.1570 H         1 <0>         0.1015
     29 H10         1.0217    0.8227    4.4803 H         1 <0>         0.0772
     30 H11         0.9758   -0.5333    5.6576 H         1 <0>         0.0880
     31 H12         0.3696   -2.1186    3.8702 H         1 <0>         0.0752
     32 H13         1.8444   -1.2196    3.3771 H         1 <0>         0.1021
     33 H14        -2.6107    2.0746    7.2508 H         1 <0>         0.4229
     34 H15        -3.3025    0.9591    5.8698 H         1 <0>         0.4188
     35 H16        -2.2004    0.9470   -5.7708 H         1 <0>         0.2418
@<TRIPOS>BOND
     1    1    2 1
     2    1   21 1
     3    1   22 1
     4    1   23 1
     5    2    3 1
     6    2    4 1
     7    2   15 1
     8    4    5 2
     9    4    6 am
    10    6   11 1
    11    6    7 1
    12    7    8 1
    13    7   24 1
    14    7   25 1
    15    8    9 1
    16    8   26 1
    17    8   27 1
    18    9   10 1
    19    9   12 1
    20    9   28 1
    21   10   11 1
    22   10   29 1
    23   10   30 1
    24   11   31 1
    25   11   32 1
    26   12   13 2
    27   12   14 am
    28   14   33 1
    29   14   34 1
    30   15   16 1
    31   16   20 1
    32   16   17 2
    33   17   18 1
    34   18   19 2
    35   19   20 1
    36   19   35 1
@<TRIPOS>MOLECULE
ZINC40459388
   40    41     0     0     0
SMALL
USER_CHARGES

@<TRIPOS>ATOM
      1 C1         -0.0184    1.5028    0.0103 C.3       1 <0>        -0.0869
      2 C2          0.0021   -0.0041    0.0020 C.2       1 <0>         0.0279
      3 C3          0.0082   -0.7886   -1.0948 C.2       1 <0>        -0.2011
      4 C4          0.0282   -2.1272   -0.6557 C.2       1 <0>        -0.1637
      5 C5          0.0335   -2.1097    0.6927 C.2       1 <0>        -0.0207
      6 N1          0.0235   -0.8092    1.1021 N.pl3     1 <0>        -0.4395
      7 C6          0.0305   -0.3525    2.4941 C.3       1 <0>         0.0671
      8 C7          0.0532   -3.3189    1.5918 C.3       1 <0>         0.1944
      9 N2          1.4348   -3.6203    1.9746 N.am      1 <0>        -0.7214
     10 C8          1.6973   -4.6674    2.7816 C.2       1 <0>         0.5128
     11 O1          0.7897   -5.3601    3.1908 O.2       1 <0>        -0.5306
     12 C9          3.1185   -4.9775    3.1754 C.3       1 <0>         0.1259
     13 H1          3.7074   -5.1803    2.2808 H         1 <0>         0.1206
     14 C10         3.7148   -3.7801    3.9179 C.3       1 <0>        -0.1611
     15 N3          3.1376   -6.1530    4.0495 N.am      1 <0>        -0.7049
     16 C11         4.2451   -6.9171    4.1271 C.2       1 <0>         0.6108
     17 O2          5.2292   -6.6306    3.4710 O.2       1 <0>        -0.5183
     18 C12         4.2643   -8.0939    5.0021 C.2       1 <0>        -0.0857
     19 C13         5.3166   -8.9460    5.1779 C.2       1 <0>        -0.1127
     20 C14         4.8971   -9.9213    6.0961 C.2       1 <0>        -0.2262
     21 C15         3.6233   -9.6254    6.4364 C.2       1 <0>         0.0003
     22 O3          3.2472   -8.5208    5.7790 O.3       1 <0>        -0.1633
     23 H2          1.0042    1.8801    0.0026 H         1 <0>         0.0721
     24 H3         -0.5455    1.8639   -0.8728 H         1 <0>         0.0820
     25 H4         -0.5286    1.8543    0.9071 H         1 <0>         0.0629
     26 H5         -0.0009   -0.4525   -2.1211 H         1 <0>         0.1381
     27 H6          0.0372   -3.0058   -1.2836 H         1 <0>         0.1382
     28 H7         -0.9953   -0.2536    2.8492 H         1 <0>         0.0743
     29 H8          0.5605   -1.0776    3.1117 H         1 <0>         0.0824
     30 H9          0.5315    0.6135    2.5570 H         1 <0>         0.0855
     31 H10        -0.5357   -3.1161    2.4864 H         1 <0>         0.0746
     32 H11        -0.3717   -4.1720    1.0628 H         1 <0>         0.0926
     33 H12         2.1606   -3.0663    1.6474 H         1 <0>         0.4054
     34 H13         3.7006   -2.9055    3.2675 H         1 <0>         0.0732
     35 H14         3.1259   -3.5773    4.8124 H         1 <0>         0.0660
     36 H15         4.7427   -4.0044    4.2027 H         1 <0>         0.0787
     37 H16         2.3532   -6.3814    4.5724 H         1 <0>         0.4161
     38 H17         6.2842   -8.8821    4.7024 H         1 <0>         0.1621
     39 H18         5.4823  -10.7521    6.4617 H         1 <0>         0.1593
     40 H19         3.0105  -10.1855    7.1272 H         1 <0>         0.2127
@<TRIPOS>BOND
     1    1    2 1
     2    1   23 1
     3    1   24 1
     4    1   25 1
     5    2    6 1
     6    2    3 2
     7    3    4 1
     8    3   26 1
     9    4    5 2
    10    4   27 1
    11    5    6 1
    12    5    8 1
    13    6    7 1
    14    7   28 1
    15    7   29 1
    16    7   30 1
    17    8    9 1
    18    8   31 1
    19    8   32 1
    20    9   10 am
    21    9   33 1
    22   10   11 2
    23   10   12 1
    24   12   13 1
    25   12   14 1
    26   12   15 1
    27   14   34 1
    28   14   35 1
    29   14   36 1
    30   15   16 am
    31   15   37 1
    32   16   17 2
    33   16   18 1
    34   18   22 1
    35   18   19 2
    36   19   20 1
    37   19   38 1
    38   20   21 2
    39   20   39 1
    40   21   22 1
    41   21   40 1
@<TRIPOS>MOLECULE
ZINC50200181
   38    40     0     0     0
SMALL
USER_CHARGES

@<TRIPOS>ATOM
      1 C1         -0.0186    1.5180    0.0104 C.3       1 <0>        -0.0873
      2 C2          1.4333    2.0083   -0.0008 C.3       1 <0>         0.0014
      3 N1          2.1755    1.3696   -1.0955 N.4       1 <0>        -0.5033
      4 C3          2.4235   -0.0462   -0.7660 C.3       1 <0>         0.1200
      5 C4          1.1263   -0.6668   -0.3530 C.2       1 <0>        -0.3595
      6 C5          0.0021   -0.0041    0.0020 C.2       1 <0>         0.0031
      7 C6         -1.1116   -0.8642    0.3518 C.2       1 <0>        -0.2417
      8 C7         -0.8972   -2.2336    0.2862 C.2       1 <0>         0.2775
      9 S1          0.7001   -2.3758   -0.2142 S.3       1 <0>         0.0995
     10 N2         -1.7936   -3.2494    0.5689 N.2       1 <0>        -1.0065
     11 S2         -1.3252   -4.8311    0.4237 S.o2      1 <0>         2.5322
     12 O1         -1.0432   -5.0004   -0.9587 O.2       1 <0>        -0.9989
     13 O2         -0.3035   -4.9975    1.3972 O.2       1 <0>        -0.9925
     14 C8         -2.7908   -5.7954    0.8851 C.3       1 <0>        -0.5536
     15 C9         -3.2641   -5.3729    2.2793 C.3       1 <0>        -0.1347
     16 C10        -4.4522   -6.2456    2.6925 C.3       1 <0>         0.0667
     17 O3         -4.0645   -7.6207    2.6629 O.3       1 <0>        -0.3808
     18 C11        -3.6573   -8.0845    1.3740 C.3       1 <0>         0.0709
     19 C12        -2.4373   -7.2857    0.9078 C.3       1 <0>        -0.1464
     20 C13        -2.3775   -0.3241    0.7473 C.1       1 <0>         0.3083
     21 N3         -3.3818    0.1043    1.0610 N.1       1 <0>        -0.4783
     22 H1         -0.5215    1.8751    0.9090 H         1 <0>         0.1177
     23 H2         -0.5386    1.8847   -0.8746 H         1 <0>         0.1016
     24 H3          1.4483    3.0896   -0.1370 H         1 <0>         0.1321
     25 H4          1.9059    1.7595    0.9493 H         1 <0>         0.1325
     26 H5          1.6353    1.4269   -1.9459 H         1 <0>         0.4296
     27 H6          2.8161   -0.5637   -1.6412 H         1 <0>         0.1328
     28 H7          3.1398   -0.1127    0.0529 H         1 <0>         0.1312
     29 H8         -3.5856   -5.6202    0.1601 H         1 <0>         0.1318
     30 H9         -2.4516   -5.5015    2.9943 H         1 <0>         0.0852
     31 H10        -3.5703   -4.3270    2.2586 H         1 <0>         0.0978
     32 H11        -4.7661   -5.9781    3.7015 H         1 <0>         0.1001
     33 H12        -5.2787   -6.0860    2.0001 H         1 <0>         0.0535
     34 H13        -3.3986   -9.1417    1.4331 H         1 <0>         0.1009
     35 H14        -4.4734   -7.9489    0.6644 H         1 <0>         0.0546
     36 H15        -2.1521   -7.6077   -0.0937 H         1 <0>         0.0859
     37 H16        -1.6081   -7.4529    1.5951 H         1 <0>         0.0872
     38 H17         3.0567    1.8436   -1.2253 H         1 <0>         0.4294
@<TRIPOS>BOND
     1    1    6 1
     2    1    2 1
     3    1   22 1
     4    1   23 1
     5    2    3 1
     6    2   24 1
     7    2   25 1
     8    3    4 1
     9    3   26 1
    10    3   38 1
    11    4    5 1
    12    4   27 1
    13    4   28 1
    14    5    9 1
    15    5    6 2
    16    6    7 1
    17    7    8 2
    18    7   20 1
    19    8    9 1
    20    8   10 1
    21   10   11 1
    22   11   12 2
    23   11   13 2
    24   11   14 1
    25   14   19 1
    26   14   15 1
    27   14   29 1
    28   15   16 1
    29   15   30 1
    30   15   31 1
    31   16   17 1
    32   16   32 1
    33   16   33 1
    34   17   18 1
    35   18   19 1
    36   18   34 1
    37   18   35 1
    38   19   36 1
    39   19   37 1
    40   20   21 3
@<TRIPOS>MOLECULE
ZINC60854340
   35    36     0     0     0
SMALL
USER_CHARGES

@<TRIPOS>ATOM
      1 C1          2.0465    0.5763   -0.2439 C.3       1 <0>        -0.0964
      2 C2          0.9004   -0.3936   -0.1150 C.2       1 <0>         0.1037
      3 C3         -0.0114   -0.6902   -1.0761 C.2       1 <0>        -0.0268
      4 C4         -0.9019   -1.6355   -0.5465 C.2       1 <0>         0.0992
      5 N1         -0.5408   -1.8973    0.6834 N.2       1 <0>        -0.2819
      6 N2          0.5953   -1.1342    0.9818 N.pl3     1 <0>        -0.4692
      7 H1          1.0774   -1.1331    1.8235 H         1 <0>         0.4456
      8 C5         -2.0744   -2.2455   -1.2705 C.3       1 <0>        -0.0768
      9 N3         -0.0555   -0.1455   -2.3733 N.am      1 <0>        -0.6349
     10 C6          0.3536   -0.8797   -3.4268 C.2       1 <0>         0.5442
     11 O1          0.6706   -2.0402   -3.2708 O.2       1 <0>        -0.5123
     12 C7          0.4173   -0.2591   -4.7986 C.3       1 <0>        -0.6586
     13 S1          1.0007   -1.4927   -5.9939 S.o2      1 <0>         2.5341
     14 O2          2.3588   -1.8209   -5.7351 O.2       1 <0>        -0.9128
     15 O3          0.0269   -2.5146   -6.1572 O.2       1 <0>        -0.9116
     16 C8          1.0290   -0.6474   -7.5396 C.ar      1 <0>        -0.6686
     17 C9         -0.0925   -0.6475   -8.3479 C.ar      1 <0>        -0.0093
     18 C10        -0.0708    0.0153   -9.5605 C.ar      1 <0>        -0.1304
     19 C11         1.0735    0.6791   -9.9653 C.ar      1 <0>         0.0177
     20 C12         2.1956    0.6790   -9.1560 C.ar      1 <0>        -0.1306
     21 C13         2.1709    0.0205   -7.9410 C.ar      1 <0>        -0.0097
     22 Cl1         1.1017    1.5115  -11.4885 Cl        1 <0>        -0.0500
     23 H2          2.9256    0.0522   -0.6188 H         1 <0>         0.0873
     24 H3          1.7737    1.3709   -0.9384 H         1 <0>         0.0863
     25 H4          2.2692    1.0074    0.7321 H         1 <0>         0.0779
     26 H5         -1.7929   -3.2249   -1.6574 H         1 <0>         0.0846
     27 H6         -2.9110   -2.3543   -0.5803 H         1 <0>         0.0780
     28 H7         -2.3673   -1.5987   -2.0974 H         1 <0>         0.0737
     29 H8         -0.3804    0.7584   -2.5090 H         1 <0>         0.4103
     30 H9         -0.5754    0.0859   -5.0877 H         1 <0>         0.1674
     31 H10         1.1056    0.5860   -4.7834 H         1 <0>         0.1671
     32 H11        -0.9856   -1.1661   -8.0319 H         1 <0>         0.1545
     33 H12        -0.9469    0.0148  -10.1920 H         1 <0>         0.1474
     34 H13         3.0893    1.1967   -9.4716 H         1 <0>         0.1472
     35 H14         3.0452    0.0243   -7.3070 H         1 <0>         0.1540
@<TRIPOS>BOND
     1    1    2 1
     2    1   23 1
     3    1   24 1
     4    1   25 1
     5    2    6 1
     6    2    3 2
     7    3    4 1
     8    3    9 1
     9    4    5 2
    10    4    8 1
    11    5    6 1
    12    6    7 1
    13    8   26 1
    14    8   27 1
    15    8   28 1
    16    9   10 am
    17    9   29 1
    18   10   11 2
    19   10   12 1
    20   12   13 1
    21   12   30 1
    22   12   31 1
    23   13   14 2
    24   13   15 2
    25   13   16 1
    26   16   21 ar
    27   16   17 ar
    28   17   18 ar
    29   17   32 1
    30   18   19 ar
    31   18   33 1
    32   19   20 ar
    33   19   22 1
    34   20   21 ar
    35   20   34 1
    36   21   35 1
@<TRIPOS>MOLECULE
ZINC66636725
   40    42     0     0     0
SMALL
USER_CHARGES

@<TRIPOS>ATOM
      1 C1         -0.0183    1.5509    0.0237 C.3       1 <0>        -0.1721
      2 C2         -0.0035    0.0211    0.0041 C.3       1 <0>         0.1036
      3 N1         -1.3799   -0.4808    0.0135 N.pl3     1 <0>        -0.4853
      4 C3         -2.1241   -0.7651    1.1319 C.2       1 <0>         0.2671
      5 N2         -3.2906   -1.1860    0.7617 N.2       1 <0>        -0.2752
      6 N3         -3.3305   -1.1842   -0.6395 N.pl3     1 <0>        -0.4687
      7 C4         -2.1339   -0.7367   -1.0743 C.2       1 <0>         0.4720
      8 S1         -1.6593   -0.5353   -2.7068 S.2       1 <0>        -0.5567
      9 C5         -1.6587   -0.6125    2.5571 C.3       1 <0>         0.2003
     10 N4         -2.7336   -1.0147    3.4676 N.am      1 <0>        -0.7291
     11 C6         -2.5429   -0.9611    4.8007 C.2       1 <0>         0.5346
     12 O1         -1.4533   -0.6691    5.2462 O.2       1 <0>        -0.5186
     13 C7         -3.6836   -1.2639    5.7379 C.3       1 <0>        -0.0571
     14 H1         -4.6297   -1.0785    5.2294 H         1 <0>         0.1050
     15 C8         -3.5828   -0.3625    6.9709 C.3       1 <0>        -0.1488
     16 C9         -4.5620   -0.8840    8.0303 C.3       1 <0>         0.0633
     17 O2         -4.1326   -2.1834    8.4393 O.3       1 <0>        -0.3123
     18 C10        -3.8442   -3.0906    7.4702 C.ar      1 <0>         0.1461
     19 C11        -3.6158   -2.7097    6.1599 C.ar      1 <0>        -0.1578
     20 C12        -3.3194   -3.6690    5.2065 C.ar      1 <0>        -0.0842
     21 C13        -3.2526   -5.0035    5.5572 C.ar      1 <0>        -0.1489
     22 C14        -3.4826   -5.3864    6.8656 C.ar      1 <0>        -0.0786
     23 C15        -3.7783   -4.4357    7.8187 C.ar      1 <0>        -0.1470
     24 H2          1.0058    1.9242    0.0167 H         1 <0>         0.0902
     25 H3         -0.5458    1.9204   -0.8556 H         1 <0>         0.0742
     26 H4         -0.5254    1.8978    0.9241 H         1 <0>         0.0607
     27 H5          0.5036   -0.3259   -0.8962 H         1 <0>         0.1212
     28 H6          0.5240   -0.3485    0.8835 H         1 <0>         0.1054
     29 H7         -4.0804   -1.4514   -1.1937 H         1 <0>         0.4712
     30 H8         -0.7859   -1.2438    2.7239 H         1 <0>         0.1122
     31 H9         -1.3950    0.4286    2.7437 H         1 <0>         0.1119
     32 H10        -3.5825   -1.3197    3.1110 H         1 <0>         0.4149
     33 H11        -2.5667   -0.3904    7.3644 H         1 <0>         0.0970
     34 H12        -3.8446    0.6605    6.7005 H         1 <0>         0.0913
     35 H13        -4.5668   -0.2119    8.8884 H         1 <0>         0.1159
     36 H14        -5.5640   -0.9452    7.6056 H         1 <0>         0.0685
     37 H15        -3.1399   -3.3726    4.1836 H         1 <0>         0.1205
     38 H16        -3.0212   -5.7476    4.8095 H         1 <0>         0.1263
     39 H17        -3.4323   -6.4297    7.1401 H         1 <0>         0.1323
     40 H18        -3.9573   -4.7364    8.8405 H         1 <0>         0.1345
@<TRIPOS>BOND
     1    1    2 1
     2    1   24 1
     3    1   25 1
     4    1   26 1
     5    2   27 1
     6    2   28 1
     7    2    3 1
     8    3    7 1
     9    3    4 1
    10    4    9 1
    11    4    5 2
    12    5    6 1
    13    6    7 1
    14    6   29 1
    15    7    8 2
    16    9   10 1
    17    9   30 1
    18    9   31 1
    19   10   11 am
    20   10   32 1
    21   11   12 2
    22   11   13 1
    23   13   14 1
    24   13   19 1
    25   13   15 1
    26   15   16 1
    27   15   33 1
    28   15   34 1
    29   16   17 1
    30   16   35 1
    31   16   36 1
    32   17   18 1
    33   18   23 ar
    34   18   19 ar
    35   19   20 ar
    36   20   21 ar
    37   20   37 1
    38   21   22 ar
    39   21   38 1
    40   22   23 ar
    41   22   39 1
    42   23   40 1
@<TRIPOS>MOLECULE
ZINC12329438
   57    60     0     0     0
SMALL
USER_CHARGES
(4R)-1'-[(2S)-2-hydroxy-2-(p-tolyl)ethyl]-6-methyl-spiro[chroman-2,4'-piperidine]-4-ol
@<TRIPOS>ATOM
      1 C1        -12.2974   -1.3978   -3.1576 C.3       1 <0>        -0.1274
      2 C2        -10.8191   -1.1079   -3.2000 C.ar      1 <0>        -0.0598
      3 C3        -10.3699    0.1990   -3.1672 C.ar      1 <0>        -0.1155
      4 C4         -9.0139    0.4649   -3.2052 C.ar      1 <0>        -0.0954
      5 C5         -8.1071   -0.5761   -3.2756 C.ar      1 <0>        -0.1507
      6 C6         -8.5566   -1.8828   -3.3138 C.ar      1 <0>        -0.1017
      7 C7         -9.9124   -2.1489   -3.2714 C.ar      1 <0>        -0.1148
      8 C8         -6.6288   -0.2863   -3.3170 C.3       1 <0>         0.1355
      9 H1         -6.4693    0.7436   -3.6365 H         1 <0>         0.1286
     10 C9         -6.0307   -0.4863   -1.9230 C.3       1 <0>        -0.0369
     11 C10        -3.9476   -0.4855   -0.6896 C.3       1 <0>         0.0038
     12 C11        -2.4496   -0.1906   -0.7975 C.3       1 <0>        -0.1747
     13 C12        -2.2455    1.3027   -1.0587 C.3       1 <0>         0.1162
     14 C13        -2.9948    1.7037   -2.3308 C.3       1 <0>        -0.1293
     15 C14        -4.4766    1.3524   -2.1779 C.3       1 <0>        -0.0046
     16 C15        -0.7517    1.5922   -1.2334 C.3       1 <0>        -0.1424
     17 C16        -0.0127    1.0858    0.0080 C.3       1 <0>         0.1524
     18 H2          0.0021   -0.0041    0.0020 H         1 <0>         0.0699
     19 C17        -0.7170    1.5713    1.2496 C.ar      1 <0>        -0.1919
     20 C18        -0.0296    1.5626    2.4520 C.ar      1 <0>        -0.0806
     21 C19        -0.6443    1.9979    3.6097 C.ar      1 <0>        -0.0989
     22 C20        -1.9528    2.4437    3.5713 C.ar      1 <0>        -0.0798
     23 C21        -2.6421    2.4557    2.3763 C.ar      1 <0>        -0.1389
     24 C22        -2.0251    2.0203    1.2076 C.ar      1 <0>         0.1226
     25 O1         -2.7322    2.0591    0.0482 O.3       1 <0>        -0.3063
     26 C23         0.1104    1.9865    4.9141 C.3       1 <0>        -0.1193
     27 O2          1.3282    1.5798   -0.0021 O.3       1 <0>        -0.5504
     28 O3         -5.9949   -1.1748   -4.2393 O.3       1 <0>        -0.5479
     29 H3        -12.6908   -1.4291   -4.1736 H         1 <0>         0.0799
     30 H4        -12.4652   -2.3597   -2.6732 H         1 <0>         0.0729
     31 H5        -12.8053   -0.6142   -2.5953 H         1 <0>         0.0732
     32 H6        -11.0783    1.0123   -3.1114 H         1 <0>         0.1315
     33 H7         -8.6629    1.4859   -3.1795 H         1 <0>         0.1268
     34 H8         -7.8483   -2.6960   -3.3732 H         1 <0>         0.1215
     35 H9        -10.2634   -3.1699   -3.2967 H         1 <0>         0.1308
     36 H10        -6.1109   -1.5359   -1.6404 H         1 <0>         0.1338
     37 H11        -6.5737    0.1263   -1.2033 H         1 <0>         0.1435
     38 H12        -4.0966   -1.5520   -0.5207 H         1 <0>         0.1315
     39 H13        -4.3693    0.0765    0.1437 H         1 <0>         0.1349
     40 H14        -2.0240   -0.7653   -1.6201 H         1 <0>         0.1073
     41 H15        -1.9557   -0.4678    0.1338 H         1 <0>         0.1184
     42 H16        -2.8901    2.7767   -2.4917 H         1 <0>         0.1260
     43 H17        -2.5794    1.1655   -3.1827 H         1 <0>         0.1119
     44 H18        -5.0095    1.6206   -3.0902 H         1 <0>         0.1336
     45 H19        -4.8959    1.9045   -1.3368 H         1 <0>         0.1390
     46 H20        -0.5958    2.6656   -1.3411 H         1 <0>         0.0988
     47 H21        -0.3795    1.0760   -2.1183 H         1 <0>         0.0978
     48 H22         0.9921    1.2140    2.4845 H         1 <0>         0.1265
     49 H23        -2.4347    2.7828    4.4764 H         1 <0>         0.1354
     50 H24        -3.6639    2.8042    2.3478 H         1 <0>         0.1327
     51 H25         0.6236    2.9391    5.0452 H         1 <0>         0.0761
     52 H26        -0.5883    1.8339    5.7367 H         1 <0>         0.0712
     53 H27         0.8416    1.1783    4.9037 H         1 <0>         0.0693
     54 H28         1.8572    1.2971    0.7564 H         1 <0>         0.3863
     55 H29        -6.0960   -2.1104   -4.0169 H         1 <0>         0.3881
     56 N1         -4.6039   -0.1042   -1.9582 N.4       1 <0>        -0.3909
     57 H30        -4.1452   -0.5990   -2.7322 H         1 <0>         0.4299
@<TRIPOS>BOND
     1    1    2 1
     2    1   29 1
     3    1   30 1
     4    1   31 1
     5    2    7 ar
     6    2    3 ar
     7    3    4 ar
     8    3   32 1
     9    4    5 ar
    10    4   33 1
    11    5    6 ar
    12    5    8 1
    13    6    7 ar
    14    6   34 1
    15    7   35 1
    16    8    9 1
    17    8   10 1
    18    8   28 1
    19   10   36 1
    20   10   37 1
    21   10   56 1
    22   11   12 1
    23   11   38 1
    24   11   39 1
    25   11   56 1
    26   12   13 1
    27   12   40 1
    28   12   41 1
    29   13   25 1
    30   13   14 1
    31   13   16 1
    32   14   15 1
    33   14   42 1
    34   14   43 1
    35   15   44 1
    36   15   45 1
    37   15   56 1
    38   16   17 1
    39   16   46 1
    40   16   47 1
    41   17   18 1
    42   17   19 1
    43   17   27 1
    44   19   24 ar
    45   19   20 ar
    46   20   21 ar
    47   20   48 1
    48   21   22 ar
    49   21   26 1
    50   22   23 ar
    51   22   49 1
    52   23   24 ar
    53   23   50 1
    54   24   25 1
    55   26   51 1
    56   26   52 1
    57   26   53 1
    58   27   54 1
    59   28   55 1
    60   56   57 1
@<TRIPOS>MOLECULE
ZINC25680266
   47    49     0     0     0
SMALL
USER_CHARGES
(2R)-N-(2-chlorophenyl)-2-[4-(4-hydroxyphenyl)-3,6-dihydro-2H-pyridin-1-yl]propanamide
@<TRIPOS>ATOM
      1 C1          1.6632    8.3093    1.5962 C.3       1 <0>        -0.1849
      2 C2          1.3415    7.7648    0.2030 C.3       1 <0>         0.0132
      3 H1          2.0341    8.1717   -0.5485 H         1 <0>         0.1668
      4 C3         -0.0753    8.1257   -0.1625 C.2       1 <0>         0.5111
      5 O1         -0.8817    7.2515   -0.4005 O.2       1 <0>        -0.5102
      6 N1         -0.4463    9.4199   -0.2250 N.am      1 <0>        -0.6552
      7 C4         -1.7346    9.7587   -0.6550 C.ar      1 <0>         0.1355
      8 C5         -2.8100    8.9366   -0.3458 C.ar      1 <0>        -0.1056
      9 C6         -4.0809    9.2765   -0.7665 C.ar      1 <0>        -0.0951
     10 C7         -4.2819   10.4284   -1.5049 C.ar      1 <0>        -0.1046
     11 C8         -3.2130   11.2468   -1.8198 C.ar      1 <0>        -0.0897
     12 C9         -1.9393   10.9156   -1.3970 C.ar      1 <0>        -0.0546
     13 Cl1        -0.5973   11.9431   -1.7931 Cl        1 <0>        -0.0564
     14 N2          1.4903    6.3034    0.2020 N.4       1 <0>        -0.3837
     15 C10         1.2334    5.7478   -1.1369 C.3       1 <0>        -0.0125
     16 C11         1.7128    4.2923   -1.1559 C.3       1 <0>        -0.1078
     17 C12         1.1587    3.5630    0.0362 C.2       1 <0>        -0.0422
     18 C13         0.6671    4.1865    1.0845 C.2       1 <0>        -0.1831
     19 C14         0.5984    5.6830    1.1898 C.3       1 <0>         0.0162
     20 C15         1.1725    2.0853    0.0324 C.ar      1 <0>        -0.1294
     21 C16        -0.0287    1.3744    0.0328 C.ar      1 <0>        -0.0546
     22 C17        -0.0117   -0.0040    0.0287 C.ar      1 <0>        -0.1622
     23 C18         1.1983   -0.6853    0.0243 C.ar      1 <0>         0.1775
     24 C19         2.3954    0.0184    0.0239 C.ar      1 <0>        -0.2153
     25 C20         2.3867    1.3969    0.0283 C.ar      1 <0>        -0.0576
     26 O2          1.2110   -2.0438    0.0208 O.3       1 <0>        -0.5056
     27 H2          2.6973    8.0459    1.8630 H         1 <0>         0.1027
     28 H3          0.9718    7.8698    2.3303 H         1 <0>         0.0928
     29 H4          1.5517    9.4036    1.5969 H         1 <0>         0.1105
     30 H5          0.2633   10.2099    0.0619 H         1 <0>         0.4454
     31 H6         -2.6535    8.0343    0.2267 H         1 <0>         0.1460
     32 H7         -4.9181    8.6395   -0.5223 H         1 <0>         0.1386
     33 H8         -5.2761   10.6891   -1.8366 H         1 <0>         0.1412
     34 H9         -3.3732   12.1455   -2.3969 H         1 <0>         0.1445
     35 H10         0.1555    5.7921   -1.3516 H         1 <0>         0.1513
     36 H11         1.7814    6.3346   -1.8888 H         1 <0>         0.1306
     37 H12         1.3644    3.8035   -2.0777 H         1 <0>         0.1245
     38 H13         2.8120    4.2678   -1.1208 H         1 <0>         0.1041
     39 H14         0.2817    3.6086    1.9375 H         1 <0>         0.1515
     40 H15         0.9043    5.9867    2.2018 H         1 <0>         0.1366
     41 H16        -0.4359    6.0093    1.0060 H         1 <0>         0.1571
     42 H17        -0.9702    1.9036    0.0317 H         1 <0>         0.1305
     43 H18        -0.9407   -0.5548    0.0287 H         1 <0>         0.1349
     44 H19         3.3345   -0.5150    0.0204 H         1 <0>         0.1326
     45 H20         3.3182    1.9435    0.0287 H         1 <0>         0.1243
     46 H21         2.1687   -2.5849    0.0173 H         1 <0>         0.4423
     47 H22         2.5292    6.0749    0.4823 H         1 <0>         0.4480
@<TRIPOS>BOND
     1    1    2 1
     2    1   27 1
     3    1   28 1
     4    1   29 1
     5    2    3 1
     6    2    4 1
     7    2   14 1
     8    4    5 2
     9    4    6 am
    10    6    7 1
    11    6   30 1
    12    7   12 ar
    13    7    8 ar
    14    8    9 ar
    15    8   31 1
    16    9   10 ar
    17    9   32 1
    18   10   11 ar
    19   10   33 1
    20   11   12 ar
    21   11   34 1
    22   12   13 1
    23   14   19 1
    24   14   15 1
    25   14   47 1
    26   15   16 1
    27   15   35 1
    28   15   36 1
    29   16   17 1
    30   16   37 1
    31   16   38 1
    32   17   18 2
    33   17   20 1
    34   18   19 1
    35   18   39 1
    36   19   40 1
    37   19   41 1
    38   20   25 ar
    39   20   21 ar
    40   21   22 ar
    41   21   42 1
    42   22   23 ar
    43   22   43 1
    44   23   24 ar
    45   23   26 1
    46   24   25 ar
    47   24   44 1
    48   25   45 1
    49   26   46 1
@<TRIPOS>MOLECULE
ZINC38114458
   42    44     0     0     0
SMALL
USER_CHARGES

@<TRIPOS>ATOM
      1 C1         -0.0187    1.5258    0.0104 C.3       1 <0>        -0.1806
      2 C2          0.0021   -0.0041    0.0020 C.3       1 <0>         0.1661
      3 C3          0.7421   -0.5109    1.2415 C.3       1 <0>         0.0566
      4 O1          0.8634   -1.9332    1.1755 O.3       1 <0>        -0.5708
      5 C4         -1.4117   -0.5257    0.0127 C.2       1 <0>        -0.0313
      6 C5         -2.3140   -0.2766    0.9715 C.2       1 <0>        -0.1246
      7 C6         -3.5399   -0.9782    0.5719 C.ar      1 <0>        -0.1344
      8 C7         -4.8111   -1.1124    1.1285 C.ar      1 <0>        -0.0293
      9 C8         -5.7632   -1.8659    0.4769 C.ar      1 <0>        -0.1037
     10 C9         -5.4595   -2.4884   -0.7265 C.ar      1 <0>        -0.0488
     11 C10        -4.2066   -2.3629   -1.2864 C.ar      1 <0>        -0.1000
     12 C11        -3.2325   -1.6074   -0.6458 C.ar      1 <0>         0.0843
     13 O2         -1.9523   -1.3037   -0.9412 O.3       1 <0>        -0.1976
     14 Br1        -7.4899   -2.0533    1.2247 Br        1 <0>        -0.0196
     15 N1          0.6897   -0.4778   -1.2066 N.4       1 <0>        -0.4997
     16 C12         2.0678    0.0307   -1.2170 C.3       1 <0>        -0.0140
     17 C13         2.7840   -0.4628   -2.4758 C.3       1 <0>         0.0517
     18 H1          2.2600   -0.1191   -3.3677 H         1 <0>         0.0981
     19 C14         4.2516    0.0340   -2.4893 C.3       1 <0>        -0.1456
     20 C15         4.9174   -1.0380   -3.3945 C.3       1 <0>        -0.1570
     21 C16         4.1229   -2.3114   -3.0329 C.3       1 <0>         0.0520
     22 O3          2.8711   -1.8966   -2.4702 O.3       1 <0>        -0.3864
     23 H2          1.0039    1.9031    0.0027 H         1 <0>         0.0997
     24 H3         -0.5459    1.8868   -0.8726 H         1 <0>         0.0984
     25 H4         -0.5289    1.8773    0.9072 H         1 <0>         0.1166
     26 H5          1.7350   -0.0630    1.2804 H         1 <0>         0.0868
     27 H6          0.1838   -0.2350    2.1361 H         1 <0>         0.0990
     28 H7          1.3234   -2.3242    1.9309 H         1 <0>         0.4119
     29 H8         -2.1685    0.3201    1.8598 H         1 <0>         0.1702
     30 H9         -5.0481   -0.6292    2.0649 H         1 <0>         0.1462
     31 H10        -6.2128   -3.0772   -1.2287 H         1 <0>         0.1549
     32 H11        -3.9819   -2.8521   -2.2227 H         1 <0>         0.1482
     33 H12         0.7033   -1.4867   -1.2121 H         1 <0>         0.4470
     34 H13         2.0530    1.1205   -1.2110 H         1 <0>         0.1473
     35 H14         2.5950   -0.3304   -0.3340 H         1 <0>         0.1407
     36 H15         4.3265    1.0259   -2.9349 H         1 <0>         0.0992
     37 H16         4.6794    0.0224   -1.4869 H         1 <0>         0.0904
     38 H17         4.7916   -0.7885   -4.4481 H         1 <0>         0.0867
     39 H18         5.9721   -1.1551   -3.1457 H         1 <0>         0.0963
     40 H19         3.9451   -2.9036   -3.9305 H         1 <0>         0.0828
     41 H20         4.6800   -2.9003   -2.3042 H         1 <0>         0.0826
     42 H21         0.2017   -0.1436   -2.0240 H         1 <0>         0.4298
@<TRIPOS>BOND
     1    1    2 1
     2    1   23 1
     3    1   24 1
     4    1   25 1
     5    2    3 1
     6    2    5 1
     7    2   15 1
     8    3    4 1
     9    3   26 1
    10    3   27 1
    11    4   28 1
    12    5   13 1
    13    5    6 2
    14    6    7 1
    15    6   29 1
    16    7   12 ar
    17    7    8 ar
    18    8    9 ar
    19    8   30 1
    20    9   10 ar
    21    9   14 1
    22   10   11 ar
    23   10   31 1
    24   11   12 ar
    25   11   32 1
    26   12   13 1
    27   15   16 1
    28   15   33 1
    29   15   42 1
    30   16   17 1
    31   16   34 1
    32   16   35 1
    33   17   18 1
    34   17   22 1
    35   17   19 1
    36   19   20 1
    37   19   36 1
    38   19   37 1
    39   20   21 1
    40   20   38 1
    41   20   39 1
    42   21   22 1
    43   21   40 1
    44   21   41 1
@<TRIPOS>MOLECULE
ZINC44502334
   42    43     0     0     0
SMALL
USER_CHARGES

@<TRIPOS>ATOM
      1 C1          0.3110   -3.1446   -2.2831 C.3       1 <0>        -0.1261
      2 C2          0.1604   -2.2288   -1.0958 C.ar      1 <0>        -0.0844
      3 C3          0.2698   -0.8607   -1.2599 C.ar      1 <0>        -0.0367
      4 C4          0.1316   -0.0201   -0.1701 C.ar      1 <0>        -0.0570
      5 C5         -0.1163   -0.5488    1.0845 C.ar      1 <0>         0.0301
      6 C6         -0.2257   -1.9164    1.2486 C.ar      1 <0>        -0.6720
      7 C7         -0.0930   -2.7570    0.1574 C.ar      1 <0>         0.0527
      8 Cl1        -0.2376   -4.4748    0.3623 Cl        1 <0>        -0.0106
      9 S1         -0.5406   -2.5896    2.8461 S.o2      1 <0>         2.6906
     10 O1         -1.1266   -1.5495    3.6168 O.2       1 <0>        -0.9384
     11 O2         -1.1834   -3.8401    2.6403 O.2       1 <0>        -0.9250
     12 N1          0.9279   -2.9203    3.5363 N.pl3     1 <0>        -1.1153
     13 C8          1.8513   -1.8278    3.8527 C.3       1 <0>         0.1177
     14 C9          2.9399   -2.3379    4.7990 C.3       1 <0>        -0.1178
     15 H1          3.4292   -3.2057    4.3567 H         1 <0>         0.1062
     16 C10         2.3097   -2.7331    6.1376 C.3       1 <0>        -0.1396
     17 C11         3.4162   -3.1679    7.1029 C.3       1 <0>        -0.1477
     18 C12         4.4306   -2.0319    7.2524 C.3       1 <0>        -0.0098
     19 N2          5.0163   -1.7188    5.9434 N.4       1 <0>        -0.5032
     20 C13         3.9724   -1.2331    5.0329 C.3       1 <0>        -0.0067
     21 C14        -0.2664    0.3670    2.2718 C.3       1 <0>        -0.1463
     22 Cl2         0.2696    1.6981   -0.3761 Cl        1 <0>        -0.0391
     23 H2         -0.6629   -3.3016   -2.7467 H         1 <0>         0.0878
     24 H3          0.9893   -2.6927   -3.0068 H         1 <0>         0.0810
     25 H4          0.7156   -4.1019   -1.9545 H         1 <0>         0.0810
     26 H5          0.4636   -0.4481   -2.2390 H         1 <0>         0.1545
     27 H6          1.1768   -3.8374    3.7311 H         1 <0>         0.4237
     28 H7          2.3104   -1.4625    2.9340 H         1 <0>         0.0789
     29 H8          1.3036   -1.0167    4.3325 H         1 <0>         0.0956
     30 H9          1.7762   -1.8794    6.5555 H         1 <0>         0.0898
     31 H10         1.6150   -3.5589    5.9838 H         1 <0>         0.0983
     32 H11         2.9812   -3.3977    8.0756 H         1 <0>         0.1155
     33 H12         3.9161   -4.0527    6.7089 H         1 <0>         0.0894
     34 H13         3.9297   -1.1478    7.6467 H         1 <0>         0.1325
     35 H14         5.2197   -2.3381    7.9392 H         1 <0>         0.1348
     36 H15         5.7227   -1.0069    6.0538 H         1 <0>         0.4347
     37 H16         4.4228   -0.9500    4.0815 H         1 <0>         0.1381
     38 H17         3.4819   -0.3655    5.4742 H         1 <0>         0.1372
     39 H18        -1.3243    0.5584    2.4516 H         1 <0>         0.1075
     40 H19         0.1722   -0.1039    3.1516 H         1 <0>         0.0843
     41 H20         0.2443    1.3088    2.0712 H         1 <0>         0.0852
     42 H21         5.4372   -2.5503    5.5568 H         1 <0>         0.4286
@<TRIPOS>BOND
     1    1    2 1
     2    1   23 1
     3    1   24 1
     4    1   25 1
     5    2    7 ar
     6    2    3 ar
     7    3    4 ar
     8    3   26 1
     9    4    5 ar
    10    4   22 1
    11    5    6 ar
    12    5   21 1
    13    6    7 ar
    14    6    9 1
    15    7    8 1
    16    9   10 2
    17    9   11 2
    18    9   12 1
    19   12   13 1
    20   12   27 1
    21   13   14 1
    22   13   28 1
    23   13   29 1
    24   14   15 1
    25   14   20 1
    26   14   16 1
    27   16   17 1
    28   16   30 1
    29   16   31 1
    30   17   18 1
    31   17   32 1
    32   17   33 1
    33   18   19 1
    34   18   34 1
    35   18   35 1
    36   19   20 1
    37   19   36 1
    38   19   42 1
    39   20   37 1
    40   20   38 1
    41   21   39 1
    42   21   40 1
    43   21   41 1
@<TRIPOS>MOLECULE
ZINC61406260
   34    36     0     0     0
SMALL
USER_CHARGES

@<TRIPOS>ATOM
      1 C1         -0.2169    1.6268    0.4124 C.3       1 <0>        -0.1893
      2 C2         -0.0540    0.1347    0.1159 C.3       1 <0>         0.0496
      3 H1          0.3995    0.0070   -0.8670 H         1 <0>         0.1538
      4 C3          0.8444   -0.5014    1.1786 C.3       1 <0>        -0.0178
      5 H2          0.4189   -0.3255    2.1666 H         1 <0>         0.1479
      6 C4          0.9428   -1.9846    0.9308 C.2       1 <0>        -0.2341
      7 C5          0.5819   -3.0106    1.7394 C.2       1 <0>        -0.0826
      8 C6          0.7658   -4.3082    1.2991 C.2       1 <0>        -0.1251
      9 C7          1.3022   -4.5154    0.0707 C.2       1 <0>        -0.1447
     10 S1          1.5578   -2.8457   -0.5071 S.3       1 <0>         0.1311
     11 Br1         1.6753   -6.1491   -0.8057 Br        1 <0>         0.0671
     12 S2          2.4990    0.2371    1.0924 S.3       1 <0>         0.0694
     13 C8          3.3388   -0.4347    2.4881 C.2       1 <0>         0.0927
     14 N1          2.8180   -1.2130    3.4099 N.2       1 <0>        -0.2342
     15 N2          3.7071   -1.5235    4.2865 N.2       1 <0>        -0.2727
     16 C9          4.8575   -0.9569    3.9733 C.2       1 <0>         0.2159
     17 N3          4.6511   -0.2482    2.8085 N.pl3     1 <0>        -0.3695
     18 C10         5.6763    0.4482    2.2314 C.2       1 <0>         0.0528
     19 C11         6.9026    0.4486    2.7912 C.2       1 <0>        -0.1152
     20 C12         7.1446   -0.2677    3.9783 C.2       1 <0>        -0.0773
     21 C13         6.1347   -0.9589    4.5696 C.2       1 <0>        -0.0780
     22 N4         -1.3713   -0.5151    0.1355 N.4       1 <0>        -0.6302
     23 H3          0.7655    2.0962    0.4647 H         1 <0>         0.1162
     24 H4         -0.8007    2.0933   -0.3810 H         1 <0>         0.0978
     25 H5         -0.7314    1.7539    1.3649 H         1 <0>         0.0926
     26 H6          0.1572   -2.8174    2.7134 H         1 <0>         0.1519
     27 H7          0.4871   -5.1439    1.9238 H         1 <0>         0.1538
     28 H8          5.5026    1.0016    1.3203 H         1 <0>         0.1719
     29 H9          7.7047    1.0019    2.3256 H         1 <0>         0.1657
     30 H10         8.1294   -0.2633    4.4217 H         1 <0>         0.1576
     31 H11         6.3115   -1.5126    5.4799 H         1 <0>         0.1657
     32 H12        -1.9637   -0.0956   -0.5653 H         1 <0>         0.4438
     33 H13        -1.2639   -1.4991   -0.0601 H         1 <0>         0.4363
     34 H14        -1.7911   -0.3969    1.0454 H         1 <0>         0.4371
@<TRIPOS>BOND
     1    1    2 1
     2    1   23 1
     3    1   24 1
     4    1   25 1
     5    2    3 1
     6    2    4 1
     7    2   22 1
     8    4    5 1
     9    4    6 1
    10    4   12 1
    11    6   10 1
    12    6    7 2
    13    7    8 1
    14    7   26 1
    15    8    9 2
    16    8   27 1
    17    9   10 1
    18    9   11 1
    19   12   13 1
    20   13   17 1
    21   13   14 2
    22   14   15 1
    23   15   16 2
    24   16   21 1
    25   16   17 1
    26   17   18 1
    27   18   19 2
    28   18   28 1
    29   19   20 1
    30   19   29 1
    31   20   21 2
    32   20   30 1
    33   21   31 1
    34   22   32 1
    35   22   33 1
    36   22   34 1
@<TRIPOS>MOLECULE
ZINC20232802
   60    63     0     0     0
SMALL
USER_CHARGES
(3S)-3-[4-[(4-cyclopentyltriazol-1-yl)methyl]piperidine-1-carbonyl]piperidine-1-carboxamide
@<TRIPOS>ATOM
      1 C1         -1.0048   -0.8383    0.5402 C.2       1 <0>        -0.0492
      2 C2         -0.0461   -0.0064    0.0704 C.2       1 <0>        -0.0112
      3 N1          0.9321   -0.7847   -0.4060 N.2       1 <0>        -0.2688
      4 N2          0.5985   -2.0169   -0.2470 N.2       1 <0>        -0.0831
      5 N3         -0.5575   -2.0951    0.3137 N.pl3     1 <0>        -0.2867
      6 C3         -1.2643   -3.3322    0.6545 C.3       1 <0>         0.1167
      7 C4         -1.3983   -4.2040   -0.5957 C.3       1 <0>        -0.1012
      8 C5         -2.2894   -3.4953   -1.6184 C.3       1 <0>        -0.1294
      9 C6         -2.3931   -4.3552   -2.8820 C.3       1 <0>         0.1041
     10 N4         -2.8574   -5.6969   -2.5042 N.am      1 <0>        -0.6105
     11 C7         -2.1250   -6.4309   -1.4632 C.3       1 <0>         0.1104
     12 C8         -2.0242   -5.5478   -0.2155 C.3       1 <0>        -0.1267
     13 C9         -3.9351   -6.2439   -3.1008 C.2       1 <0>         0.5244
     14 O1         -4.2569   -7.3846   -2.8436 O.2       1 <0>        -0.5332
     15 C10        -4.7401   -5.4382   -4.0876 C.3       1 <0>        -0.1248
     16 H1         -4.0537   -4.7899   -4.6520 H         1 <0>         0.0977
     17 C11        -5.4703   -6.3837   -5.0441 C.3       1 <0>        -0.1029
     18 C12        -6.2621   -5.5659   -6.0670 C.3       1 <0>        -0.1361
     19 C13        -7.3064   -4.7156   -5.3368 C.3       1 <0>         0.1091
     20 N5         -6.6276   -3.9083   -4.3140 N.am      1 <0>        -0.6280
     21 C14        -5.7672   -4.5864   -3.3349 C.3       1 <0>         0.1430
     22 C15        -6.7914   -2.5711   -4.2743 C.2       1 <0>         0.7119
     23 O2         -6.1511   -1.9033   -3.4855 O.2       1 <0>        -0.5984
     24 N6         -7.6651   -1.9742   -5.1091 N.am      1 <0>        -0.8908
     25 C16        -0.0724    1.5003    0.0867 C.3       1 <0>        -0.0112
     26 C17        -0.8319    2.0021    1.3321 C.3       1 <0>        -0.1206
     27 C18        -1.6018    3.2496    0.8295 C.3       1 <0>        -0.1248
     28 C19        -2.0387    2.8310   -0.5963 C.3       1 <0>        -0.1194
     29 C20        -0.8390    2.0273   -1.1390 C.3       1 <0>        -0.1098
     30 H2         -1.9399   -0.5558    1.0008 H         1 <0>         0.1863
     31 H3         -0.6979   -3.8782    1.4233 H         1 <0>         0.1032
     32 H4         -2.2651   -3.0883    1.0405 H         1 <0>         0.1073
     33 H5         -0.4034   -4.3743   -1.0329 H         1 <0>         0.0951
     34 H6         -3.2920   -3.3470   -1.1907 H         1 <0>         0.0738
     35 H7         -1.8511   -2.5189   -1.8725 H         1 <0>         0.0742
     36 H8         -3.1083   -3.8960   -3.5803 H         1 <0>         0.0923
     37 H9         -1.4053   -4.4236   -3.3611 H         1 <0>         0.0741
     38 H10        -2.6638   -7.3588   -1.2208 H         1 <0>         0.0990
     39 H11        -1.1170   -6.6770   -1.8284 H         1 <0>         0.0716
     40 H12        -1.3954   -6.0451    0.5377 H         1 <0>         0.0848
     41 H13        -3.0293   -5.3800    0.1989 H         1 <0>         0.0739
     42 H14        -4.7365   -7.0137   -5.5681 H         1 <0>         0.0720
     43 H15        -6.1602   -7.0222   -4.4729 H         1 <0>         0.0798
     44 H16        -5.5758   -4.9095   -6.6221 H         1 <0>         0.0692
     45 H17        -6.7667   -6.2462   -6.7688 H         1 <0>         0.0841
     46 H18        -7.8115   -4.0561   -6.0579 H         1 <0>         0.0818
     47 H19        -8.0477   -5.3742   -4.8607 H         1 <0>         0.0737
     48 H20        -6.3770   -5.2341   -2.6879 H         1 <0>         0.0727
     49 H21        -5.2439   -3.8406   -2.7185 H         1 <0>         0.0984
     50 H22        -7.7988   -0.8828   -5.0768 H         1 <0>         0.4374
     51 H23        -8.2444   -2.5784   -5.8228 H         1 <0>         0.4123
     52 H24         0.9757    1.8343    0.0843 H         1 <0>         0.0900
     53 H25        -1.5109    1.2140    1.6897 H         1 <0>         0.0673
     54 H26        -0.1115    2.2528    2.1246 H         1 <0>         0.0689
     55 H27        -2.4555    3.4462    1.4947 H         1 <0>         0.0676
     56 H28        -0.9293    4.1200    0.8292 H         1 <0>         0.0695
     57 H29        -2.9513    2.2199   -0.5355 H         1 <0>         0.0663
     58 H30        -2.2389    3.7303   -1.1973 H         1 <0>         0.0676
     59 H31        -0.1760    2.6687   -1.7382 H         1 <0>         0.0707
     60 H32        -1.1797    1.1791   -1.7509 H         1 <0>         0.0647
@<TRIPOS>BOND
     1    1    5 1
     2    1    2 2
     3    1   30 1
     4    2    3 1
     5    2   25 1
     6    3    4 2
     7    4    5 1
     8    5    6 1
     9    6    7 1
    10    6   31 1
    11    6   32 1
    12    7   12 1
    13    7    8 1
    14    7   33 1
    15    8    9 1
    16    8   34 1
    17    8   35 1
    18    9   10 1
    19    9   36 1
    20    9   37 1
    21   10   11 1
    22   10   13 am
    23   11   12 1
    24   11   38 1
    25   11   39 1
    26   12   40 1
    27   12   41 1
    28   13   14 2
    29   13   15 1
    30   15   16 1
    31   15   21 1
    32   15   17 1
    33   17   18 1
    34   17   42 1
    35   17   43 1
    36   18   19 1
    37   18   44 1
    38   18   45 1
    39   19   20 1
    40   19   46 1
    41   19   47 1
    42   20   21 1
    43   20   22 am
    44   21   48 1
    45   21   49 1
    46   22   23 2
    47   22   24 am
    48   24   50 1
    49   24   51 1
    50   25   29 1
    51   25   26 1
    52   25   52 1
    53   26   27 1
    54   26   53 1
    55   26   54 1
    56   27   28 1
    57   27   55 1
    58   27   56 1
    59   28   29 1
    60   28   57 1
    61   28   58 1
    62   29   59 1
    63   29   60 1
@<TRIPOS>MOLECULE
ZINC39358917
   48    51     0     0     0
SMALL
USER_CHARGES

@<TRIPOS>ATOM
      1 C1         -0.0173    1.4248    0.0099 C.3       1 <0>         0.0256
      2 O1          0.0021   -0.0041    0.0020 O.3       1 <0>        -0.3061
      3 C2          0.6263   -0.6188    1.0422 C.ar      1 <0>         0.1218
      4 C3          1.2025    0.1380    2.0515 C.ar      1 <0>        -0.2028
      5 C4          1.8375   -0.4858    3.1088 C.ar      1 <0>        -0.0527
      6 C5          1.9011   -1.8657    3.1650 C.ar      1 <0>        -0.0857
      7 C6          1.3275   -2.6295    2.1601 C.ar      1 <0>         0.1514
      8 C7          0.6826   -2.0061    1.0982 C.ar      1 <0>         0.0439
      9 O2          0.1135   -2.7524    0.1126 O.3       1 <0>        -0.3215
     10 C8          0.9387   -3.0897   -1.0043 C.3       1 <0>         0.0391
     11 O3          1.3914   -3.9868    2.2158 O.3       1 <0>        -0.3222
     12 C9          0.3245   -4.6594    2.8877 C.3       1 <0>         0.0384
     13 C10         2.5951   -2.5406    4.3199 C.3       1 <0>         0.1041
     14 H1          2.5488   -3.6230    4.2004 H         1 <0>         0.1065
     15 C11         1.9468   -2.1402    5.6110 C.2       1 <0>        -0.1794
     16 C12         0.7773   -1.6359    5.9381 C.2       1 <0>         0.1741
     17 N1          0.7502   -1.3336    7.2651 N.2       1 <0>        -0.1475
     18 N2          1.7835   -1.6305    7.8789 N.2       1 <0>        -0.1378
     19 C13         2.6992   -2.2785    6.9381 C.3       1 <0>         0.2172
     20 H2          2.8901   -3.3187    7.2017 H         1 <0>         0.1554
     21 N3          3.9325   -1.5170    6.7266 N.pl3     1 <0>        -0.6960
     22 C14         4.6049   -1.6406    5.5363 C.2       1 <0>         0.2574
     23 C15         4.0459   -2.0877    4.3902 C.2       1 <0>        -0.3088
     24 C16         4.7799   -2.1549    3.1939 C.2       1 <0>         0.3996
     25 O4          4.2366   -2.5658    2.1875 O.2       1 <0>        -0.4602
     26 C17         6.2204   -1.7307    3.1285 C.3       1 <0>        -0.1681
     27 C18         6.4704   -0.6668    4.2029 C.3       1 <0>        -0.1111
     28 C19         6.0679   -1.2464    5.5619 C.3       1 <0>        -0.1012
     29 O5         -0.2555   -1.4440    5.0757 O.3       1 <0>        -0.4288
     30 H3          1.0053    1.8021    0.0021 H         1 <0>         0.0548
     31 H4         -0.5445    1.7859   -0.8732 H         1 <0>         0.1014
     32 H5         -0.5275    1.7763    0.9067 H         1 <0>         0.0556
     33 H6          1.1553    1.2162    2.0110 H         1 <0>         0.1312
     34 H7          2.2855    0.1064    3.8930 H         1 <0>         0.1181
     35 H8          1.7981   -3.6652   -0.6604 H         1 <0>         0.0498
     36 H9          0.3638   -3.6843   -1.7143 H         1 <0>         0.0908
     37 H10         1.2835   -2.1769   -1.4901 H         1 <0>         0.0431
     38 H11         0.4984   -5.7351    2.8596 H         1 <0>         0.0934
     39 H12         0.2802   -4.3255    3.9244 H         1 <0>         0.0418
     40 H13        -0.6187   -4.4307    2.3917 H         1 <0>         0.0518
     41 H14         4.2708   -0.9305    7.4212 H         1 <0>         0.4180
     42 H15         6.8635   -2.5917    3.3101 H         1 <0>         0.0984
     43 H16         6.4340   -1.3134    2.1444 H         1 <0>         0.0945
     44 H17         7.5268   -0.3988    4.2156 H         1 <0>         0.0849
     45 H18         5.8690    0.2173    3.9914 H         1 <0>         0.0729
     46 H19         6.2290   -0.5006    6.3404 H         1 <0>         0.0876
     47 H20         6.6769   -2.1258    5.7717 H         1 <0>         0.1016
     48 H21        -1.0440   -1.0624    5.4851 H         1 <0>         0.4056
@<TRIPOS>BOND
     1    1    2 1
     2    1   30 1
     3    1   31 1
     4    1   32 1
     5    2    3 1
     6    3    8 ar
     7    3    4 ar
     8    4    5 ar
     9    4   33 1
    10    5    6 ar
    11    5   34 1
    12    6    7 ar
    13    6   13 1
    14    7    8 ar
    15    7   11 1
    16    8    9 1
    17    9   10 1
    18   10   35 1
    19   10   36 1
    20   10   37 1
    21   11   12 1
    22   12   38 1
    23   12   39 1
    24   12   40 1
    25   13   14 1
    26   13   23 1
    27   13   15 1
    28   15   19 1
    29   15   16 2
    30   16   17 1
    31   16   29 1
    32   17   18 2
    33   18   19 1
    34   19   20 1
    35   19   21 1
    36   21   22 1
    37   21   41 1
    38   22   28 1
    39   22   23 2
    40   23   24 1
    41   24   25 2
    42   24   26 1
    43   26   27 1
    44   26   42 1
    45   26   43 1
    46   27   28 1
    47   27   44 1
    48   27   45 1
    49   28   46 1
    50   28   47 1
    51   29   48 1
@<TRIPOS>MOLECULE
ZINC55582398
   46    48     0     0     0
SMALL
USER_CHARGES

@<TRIPOS>ATOM
      1 C1          0.5770    0.9710   -0.3868 C.3       1 <0>        -0.1539
      2 C2          0.2865   -0.4710   -0.0593 C.ar      1 <0>         0.0530
      3 C3          0.1889   -1.4027   -1.0741 C.ar      1 <0>        -0.1552
      4 C4         -0.0788   -2.7314   -0.7714 C.ar      1 <0>         0.2171
      5 C5         -0.2476   -3.1187    0.5515 C.ar      1 <0>        -0.1802
      6 C6         -0.1487   -2.1821    1.5617 C.ar      1 <0>         0.0478
      7 C7          0.1236   -0.8609    1.2574 C.ar      1 <0>        -0.7037
      8 S1          0.2560    0.3296    2.5496 S.o2      1 <0>         2.6896
      9 O1          0.7987   -0.3497    3.6736 O.2       1 <0>        -0.9454
     10 O2          0.8725    1.4775    1.9827 O.2       1 <0>        -0.9451
     11 N1         -1.2840    0.7755    2.9643 N.pl3     1 <0>        -1.0576
     12 C8         -2.0790    1.4744    2.0514 C.ar      1 <0>         0.1426
     13 C9         -1.5527    2.5572    1.3582 C.ar      1 <0>        -0.1285
     14 C10        -2.3379    3.2468    0.4565 C.ar      1 <0>        -0.0869
     15 C11        -3.6537    2.8587    0.2425 C.ar      1 <0>         0.1424
     16 C12        -4.1801    1.7765    0.9351 C.ar      1 <0>        -0.1156
     17 C13        -3.3938    1.0829    1.8327 C.ar      1 <0>        -0.1001
     18 N2         -4.4518    3.5606   -0.6736 N.pl3     1 <0>        -0.3304
     19 C14        -5.7384    3.3088   -0.9825 C.2       1 <0>         0.2604
     20 N3         -6.1197    4.1856   -1.8762 N.2       1 <0>        -0.5352
     21 C15        -5.1113    5.0084   -2.1614 C.2       1 <0>         0.2094
     22 N4         -4.0701    4.6694   -1.4465 N.2       1 <0>        -0.3121
     23 C16        -0.3322   -2.6014    2.9975 C.3       1 <0>        -0.1367
     24 N5         -0.1788   -3.6777   -1.7973 N.am      1 <0>        -0.6794
     25 C17         0.5883   -3.5606   -2.8992 C.2       1 <0>         0.5108
     26 O3          1.4332   -2.6926   -2.9605 O.2       1 <0>        -0.5152
     27 C18         0.3962   -4.5082   -4.0552 C.3       1 <0>        -0.1720
     28 H1          1.6440    1.1620   -0.2714 H         1 <0>         0.0966
     29 H2          0.2802    1.1769   -1.4152 H         1 <0>         0.0711
     30 H3          0.0171    1.6171    0.2893 H         1 <0>         0.1011
     31 H4          0.3203   -1.0983   -2.1019 H         1 <0>         0.1425
     32 H5         -0.4563   -4.1511    0.7900 H         1 <0>         0.1366
     33 H6         -1.6343    0.5517    3.8407 H         1 <0>         0.4288
     34 H7         -0.5294    2.8596    1.5252 H         1 <0>         0.1717
     35 H8         -1.9288    4.0886   -0.0824 H         1 <0>         0.1482
     36 H9         -5.2037    1.4751    0.7686 H         1 <0>         0.1389
     37 H10        -3.8019    0.2384    2.3681 H         1 <0>         0.1431
     38 H11        -6.3485    2.5210   -0.5659 H         1 <0>         0.2228
     39 H12        -5.1490    5.8260   -2.8661 H         1 <0>         0.2246
     40 H13         0.6423   -2.7872    3.4491 H         1 <0>         0.1011
     41 H14        -0.8414   -1.8085    3.5453 H         1 <0>         0.0695
     42 H15        -0.9303   -3.5119    3.0365 H         1 <0>         0.0798
     43 H16        -0.8002   -4.4180   -1.7153 H         1 <0>         0.4162
     44 H17        -0.3393   -4.0949   -4.7454 H         1 <0>         0.1015
     45 H18         1.3448   -4.6451   -4.5742 H         1 <0>         0.1008
     46 H19         0.0440   -5.4699   -3.6821 H         1 <0>         0.0849
@<TRIPOS>BOND
     1    1    2 1
     2    1   28 1
     3    1   29 1
     4    1   30 1
     5    2    7 ar
     6    2    3 ar
     7    3    4 ar
     8    3   31 1
     9    4    5 ar
    10    4   24 1
    11    5    6 ar
    12    5   32 1
    13    6    7 ar
    14    6   23 1
    15    7    8 1
    16    8    9 2
    17    8   10 2
    18    8   11 1
    19   11   12 1
    20   11   33 1
    21   12   17 ar
    22   12   13 ar
    23   13   14 ar
    24   13   34 1
    25   14   15 ar
    26   14   35 1
    27   15   16 ar
    28   15   18 1
    29   16   17 ar
    30   16   36 1
    31   17   37 1
    32   18   22 1
    33   18   19 1
    34   19   20 2
    35   19   38 1
    36   20   21 1
    37   21   22 2
    38   21   39 1
    39   23   40 1
    40   23   41 1
    41   23   42 1
    42   24   25 am
    43   24   43 1
    44   25   26 2
    45   25   27 1
    46   27   44 1
    47   27   45 1
    48   27   46 1
@<TRIPOS>MOLECULE
ZINC65238004
   50    53     0     0     0
SMALL
USER_CHARGES

@<TRIPOS>ATOM
      1 C1         -0.1174    1.4336    0.0782 C.3       1 <0>        -0.1527
      2 C2         -0.0610   -0.0952    0.0563 C.3       1 <0>        -0.1243
      3 C3          0.6563   -0.5609   -1.2123 C.3       1 <0>        -0.1170
      4 C4          0.7126   -2.0897   -1.2342 C.3       1 <0>         0.0548
      5 N1          1.4013   -2.5369   -2.4523 N.3       1 <0>        -0.5394
      6 C5          0.6270   -2.1914   -3.6519 C.3       1 <0>         0.0407
      7 C6          1.4568   -2.5089   -4.9004 C.3       1 <0>         0.0822
      8 N2          1.8954   -3.9108   -4.8258 N.am      1 <0>        -0.6005
      9 C7          2.5583   -4.3679   -3.5950 C.3       1 <0>         0.1200
     10 C8          1.6852   -3.9772   -2.3979 C.3       1 <0>         0.0414
     11 C9          1.6956   -4.7540   -5.8580 C.2       1 <0>         0.5917
     12 O1          2.1284   -5.8905   -5.8081 O.2       1 <0>        -0.4874
     13 C10         0.9582   -4.3032   -7.0388 C.2       1 <0>         0.0081
     14 N3          0.5396   -3.0912   -7.2666 N.2       1 <0>        -0.1272
     15 N4         -0.1140   -2.9890   -8.5014 N.pl3     1 <0>        -0.4204
     16 N5          0.0845   -4.1651   -9.2112 N.pl3     1 <0>        -0.4705
     17 C11         0.5521   -5.1575   -8.2142 C.3       1 <0>         0.1784
     18 H1         -0.2421   -5.8535   -7.9440 H         1 <0>         0.1335
     19 C12         1.7382   -5.8625   -8.8206 C.2       1 <0>         0.5074
     20 O2          2.5864   -6.3449   -8.1001 O.2       1 <0>        -0.4581
     21 N6          1.8613   -5.9601  -10.1601 N.am      1 <0>        -0.6570
     22 C13         0.9188   -5.4197  -11.0418 C.ar      1 <0>         0.1479
     23 C14        -0.0066   -4.4762  -10.5649 C.ar      1 <0>         0.1743
     24 C15        -0.9289   -3.9076  -11.4153 C.ar      1 <0>        -0.0989
     25 C16        -0.9616   -4.2901  -12.7466 C.ar      1 <0>        -0.1359
     26 C17        -0.0714   -5.2398  -13.2177 C.ar      1 <0>         0.1070
     27 C18         0.8765   -5.7971  -12.3720 C.ar      1 <0>        -0.1547
     28 F1         -0.1141   -5.6138  -14.5152 F         1 <0>        -0.1320
     29 H2          0.8961    1.8348    0.0658 H         1 <0>         0.0549
     30 H3         -0.6599    1.7898   -0.7975 H         1 <0>         0.0531
     31 H4         -0.6284    1.7655    0.9820 H         1 <0>         0.0541
     32 H5          0.4815   -0.4513    0.9320 H         1 <0>         0.0624
     33 H6         -1.0744   -0.4963    0.0688 H         1 <0>         0.0593
     34 H7          0.1137   -0.2048   -2.0880 H         1 <0>         0.0618
     35 H8          1.6697   -0.1598   -1.2248 H         1 <0>         0.0719
     36 H9          1.2552   -2.4459   -0.3585 H         1 <0>         0.0765
     37 H10        -0.3008   -2.4909   -1.2218 H         1 <0>         0.0338
     38 H11        -0.2946   -2.7731   -3.6700 H         1 <0>         0.0380
     39 H12         0.3864   -1.1284   -3.6357 H         1 <0>         0.0911
     40 H13         0.8471   -2.3629   -5.7921 H         1 <0>         0.1300
     41 H14         2.3276   -1.8543   -4.9376 H         1 <0>         0.0776
     42 H15         2.6770   -5.4511   -3.6237 H         1 <0>         0.1000
     43 H16         3.5350   -3.8920   -3.5068 H         1 <0>         0.0798
     44 H17         2.2120   -4.2094   -1.4723 H         1 <0>         0.0907
     45 H18         0.7489   -4.5341   -2.4335 H         1 <0>         0.0400
     46 H19        -0.6220   -2.2224   -8.8097 H         1 <0>         0.4596
     47 H20         2.6320   -6.4218  -10.5258 H         1 <0>         0.4166
     48 H21        -1.6234   -3.1676  -11.0461 H         1 <0>         0.1413
     49 H22        -1.6826   -3.8470  -13.4175 H         1 <0>         0.1470
     50 H23         1.5716   -6.5333  -12.7478 H         1 <0>         0.1491
@<TRIPOS>BOND
     1    1    2 1
     2    1   29 1
     3    1   30 1
     4    1   31 1
     5    2    3 1
     6    2   32 1
     7    2   33 1
     8    3    4 1
     9    3   34 1
    10    3   35 1
    11    4    5 1
    12    4   36 1
    13    4   37 1
    14    5   10 1
    15    5    6 1
    16    6    7 1
    17    6   38 1
    18    6   39 1
    19    7    8 1
    20    7   40 1
    21    7   41 1
    22    8    9 1
    23    8   11 am
    24    9   10 1
    25    9   42 1
    26    9   43 1
    27   10   44 1
    28   10   45 1
    29   11   12 2
    30   11   13 1
    31   13   17 1
    32   13   14 2
    33   14   15 1
    34   15   16 1
    35   15   46 1
    36   16   23 1
    37   16   17 1
    38   17   18 1
    39   17   19 1
    40   19   20 2
    41   19   21 am
    42   21   22 1
    43   21   47 1
    44   22   27 ar
    45   22   23 ar
    46   23   24 ar
    47   24   25 ar
    48   24   48 1
    49   25   26 ar
    50   25   49 1
    51   26   27 ar
    52   26   28 1
    53   27   50 1
@<TRIPOS>MOLECULE
ZINC67350919
   51    53     0     0     0
SMALL
USER_CHARGES

@<TRIPOS>ATOM
      1 C1         -3.6464   -9.3240    1.1927 C.3       1 <0>        -0.0721
      2 C2         -2.7323   -8.1640    0.8931 C.2       1 <0>        -0.0107
      3 C3         -2.3258   -7.7700   -0.3275 C.2       1 <0>        -0.0457
      4 O1         -1.5223   -6.7017   -0.1562 O.3       1 <0>        -0.1934
      5 C4         -1.4464   -6.4549    1.1630 C.2       1 <0>         0.2287
      6 N1         -2.1836   -7.3369    1.7958 N.2       1 <0>        -0.4590
      7 C5         -0.6681   -5.3681    1.7945 C.ar      1 <0>         0.0038
      8 C6          0.0694   -4.4842    1.0042 C.ar      1 <0>        -0.1008
      9 C7          0.7951   -3.4705    1.5958 C.ar      1 <0>        -0.0970
     10 C8          0.7953   -3.3257    2.9705 C.ar      1 <0>        -0.1194
     11 C9          0.0645   -4.2003    3.7663 C.ar      1 <0>         0.1406
     12 C10        -0.6727   -5.2188    3.1807 C.ar      1 <0>        -0.0740
     13 N2          0.0682   -4.0501    5.1557 N.am      1 <0>        -0.6441
     14 C11        -0.0156   -5.1350    5.9510 C.2       1 <0>         0.5065
     15 O2          0.0021   -6.2469    5.4646 O.2       1 <0>        -0.4893
     16 C12        -0.1304   -4.9690    7.4308 C.2       1 <0>         0.5147
     17 O3         -0.1482   -3.8572    7.9171 O.2       1 <0>        -0.5147
     18 N3         -0.2143   -6.0539    8.2261 N.am      1 <0>        -0.6884
     19 C13        -0.3269   -5.8910    9.6777 C.3       1 <0>         0.2262
     20 H1         -0.9191   -5.0031    9.8988 H         1 <0>         0.0978
     21 C14         1.0696   -5.7364   10.2834 C.3       1 <0>        -0.1595
     22 C15        -0.9993   -7.1034   10.2685 C.2       1 <0>        -0.2573
     23 C16        -1.0133   -8.3880    9.7155 C.2       1 <0>         0.0579
     24 N4         -1.6938   -9.1695   10.5143 N.2       1 <0>        -0.2884
     25 N5         -2.1350   -8.4056   11.6025 N.pl3     1 <0>        -0.3696
     26 C17        -1.6913   -7.1428   11.4307 C.2       1 <0>         0.1039
     27 C18        -1.9272   -5.9834   12.3640 C.3       1 <0>        -0.0995
     28 C19        -2.9324   -8.8930   12.7308 C.3       1 <0>         0.0979
     29 C20        -2.6994   -8.4056   -1.6418 C.3       1 <0>        -0.0681
     30 H2         -4.6811   -8.9812    1.1901 H         1 <0>         0.0760
     31 H3         -3.5170  -10.0943    0.4325 H         1 <0>         0.0758
     32 H4         -3.4024   -9.7354    2.1721 H         1 <0>         0.0774
     33 H5          0.0721   -4.5941   -0.0702 H         1 <0>         0.1342
     34 H6          1.3651   -2.7882    0.9827 H         1 <0>         0.1394
     35 H7          1.3655   -2.5306    3.4279 H         1 <0>         0.1364
     36 H8         -1.2451   -5.8966    3.7967 H         1 <0>         0.1515
     37 H9          0.1312   -3.1651    5.5476 H         1 <0>         0.4258
     38 H10        -0.2001   -6.9425    7.8374 H         1 <0>         0.4127
     39 H11         1.5560   -4.8596    9.8560 H         1 <0>         0.0645
     40 H12         0.9858   -5.6153   11.3634 H         1 <0>         0.0699
     41 H13         1.6619   -6.6244   10.0622 H         1 <0>         0.0617
     42 H14        -0.5435   -8.6838    8.7891 H         1 <0>         0.1815
     43 H15        -2.8478   -5.4720   12.0827 H         1 <0>         0.0846
     44 H16        -2.0140   -6.3517   13.3862 H         1 <0>         0.0747
     45 H17        -1.0906   -5.2879   12.2982 H         1 <0>         0.0894
     46 H18        -2.2680   -9.2425   13.5211 H         1 <0>         0.0772
     47 H19        -3.5557   -8.0839   13.1115 H         1 <0>         0.0885
     48 H20        -3.5666   -9.7151   12.3992 H         1 <0>         0.0922
     49 H21        -3.6036   -7.9357   -2.0287 H         1 <0>         0.0860
     50 H22        -1.8861   -8.2705   -2.3549 H         1 <0>         0.0796
     51 H23        -2.8786   -9.4704   -1.4926 H         1 <0>         0.0938
@<TRIPOS>BOND
     1    1    2 1
     2    1   30 1
     3    1   31 1
     4    1   32 1
     5    2    6 1
     6    2    3 2
     7    3    4 1
     8    3   29 1
     9    4    5 1
    10    5    6 2
    11    5    7 1
    12    7   12 ar
    13    7    8 ar
    14    8    9 ar
    15    8   33 1
    16    9   10 ar
    17    9   34 1
    18   10   11 ar
    19   10   35 1
    20   11   12 ar
    21   11   13 1
    22   12   36 1
    23   13   14 am
    24   13   37 1
    25   14   15 2
    26   14   16 1
    27   16   17 2
    28   16   18 am
    29   18   19 1
    30   18   38 1
    31   19   20 1
    32   19   21 1
    33   19   22 1
    34   21   39 1
    35   21   40 1
    36   21   41 1
    37   22   26 2
    38   22   23 1
    39   23   24 2
    40   23   42 1
    41   24   25 1
    42   25   26 1
    43   25   28 1
    44   26   27 1
    45   27   43 1
    46   27   44 1
    47   27   45 1
    48   28   46 1
    49   28   47 1
    50   28   48 1
    51   29   49 1
    52   29   50 1
    53   29   51 1
@<TRIPOS>MOLECULE
ZINC09891398
   39    40     0     0     0
SMALL
USER_CHARGES
6-hydroxy-N-[2-[[2-nitro-4-(trifluoromethyl)phenyl]amino]ethyl]pyridine-3-carboxamide
@<TRIPOS>ATOM
      1 C1         -2.2063    2.1669    1.2965 C.ar      1 <0>         0.0289
      2 C2         -2.7255    2.5798    2.5081 C.ar      1 <0>        -0.2057
      3 C3         -1.8854    2.7457    3.6015 C.ar      1 <0>         0.3161
      4 C4         -0.5257    2.4902    3.4740 C.ar      1 <0>        -0.1310
      5 C5         -0.0141    2.0723    2.2615 C.ar      1 <0>         0.0476
      6 C6         -0.8536    1.9080    1.1746 C.ar      1 <0>        -0.2480
      7 C7         -0.2916    1.4518   -0.1472 C.3       1 <0>         0.5192
      8 F1         -0.3213    0.0544   -0.2091 F         1 <0>        -0.1728
      9 F2          1.0292    1.8961   -0.2707 F         1 <0>        -0.1734
     10 F3         -1.0611    1.9812   -1.1887 F         1 <0>        -0.1735
     11 N1          0.3732    2.6652    4.6366 N.pl3     1 <0>         0.0540
     12 O1          1.5430    2.3354    4.5571 O.2       1 <0>        -0.1328
     13 O2         -0.0568    3.1391    5.6730 O.3       1 <0>        -0.2000
     14 N2         -2.4063    3.1682    4.8267 N.pl3     1 <0>        -0.7196
     15 C8         -3.8541    3.3154    4.9955 C.3       1 <0>         0.0980
     16 C9         -4.1563    3.7867    6.4194 C.3       1 <0>         0.1118
     17 N3         -5.6041    3.9339    6.5881 N.am      1 <0>        -0.7385
     18 C10        -6.1067    4.3415    7.7704 C.2       1 <0>         0.5790
     19 O3         -5.3586    4.5871    8.6968 O.2       1 <0>        -0.5238
     20 C11        -7.5655    4.4898    7.9404 C.2       1 <0>        -0.2356
     21 C12        -8.1004    4.9078    9.1680 C.2       1 <0>         0.0400
     22 C13        -9.4703    5.0262    9.2797 C.2       1 <0>        -0.1971
     23 C14       -10.2706    4.7295    8.1805 C.2       1 <0>         0.4498
     24 N4         -9.7351    4.3421    7.0332 N.am      1 <0>        -0.5450
     25 C15        -8.4331    4.2163    6.8825 C.2       1 <0>         0.1924
     26 O4        -11.6168    4.8433    8.2844 O.2       1 <0>        -0.6070
     27 H1         -2.8583    2.0422    0.4446 H         1 <0>         0.1545
     28 H2         -3.7829    2.7776    2.6038 H         1 <0>         0.1550
     29 H3          1.0428    1.8738    2.1615 H         1 <0>         0.1655
     30 H4         -1.7294    3.3904    5.6648 H         1 <0>         0.4495
     31 H5         -4.2337    4.0557    4.2759 H         1 <0>         0.0791
     32 H6         -4.3443    2.3468    4.8181 H         1 <0>         0.0789
     33 H7         -3.7767    3.0464    7.1390 H         1 <0>         0.0821
     34 H8         -3.6661    4.7553    6.5968 H         1 <0>         0.0823
     35 H9         -6.2809    3.7118    5.7499 H         1 <0>         0.4175
     36 H10        -7.5148    5.1181    9.9509 H         1 <0>         0.1392
     37 H11        -9.8778    5.3222   10.1436 H         1 <0>         0.1455
     38 H12        -8.0677    3.9217    5.9995 H         1 <0>         0.1577
     39 H13       -10.3822    4.1154    6.1730 H         1 <0>         0.4602
@<TRIPOS>BOND
     1    1    6 ar
     2    1    2 ar
     3    1   27 1
     4    2    3 ar
     5    2   28 1
     6    3    4 ar
     7    3   14 1
     8    4    5 ar
     9    4   11 1
    10    5    6 ar
    11    5   29 1
    12    6    7 1
    13    7    8 1
    14    7    9 1
    15    7   10 1
    16   11   12 2
    17   11   13 1
    18   14   15 1
    19   14   30 1
    20   15   16 1
    21   15   31 1
    22   15   32 1
    23   16   17 1
    24   16   33 1
    25   16   34 1
    26   17   18 am
    27   17   35 1
    28   18   19 2
    29   18   20 1
    30   20   25 2
    31   20   21 1
    32   21   36 1
    33   21   22 2
    34   22   23 1
    35   22   37 1
    36   23   26 2
    37   23   24 am
    38   24   39 1
    39   24   25 1
    40   25   38 1
@<TRIPOS>MOLECULE
ZINC46094904
   44    46     0     0     0
SMALL
USER_CHARGES

@<TRIPOS>ATOM
      1 C1         -0.0167    1.3770    0.0096 C.ar      1 <0>        -0.1821
      2 C2          1.1845    2.0725    0.0019 C.ar      1 <0>        -0.0331
      3 C3          2.3653    1.3505   -0.0133 C.ar      1 <0>        -0.1590
      4 C4          2.3086   -0.0378   -0.0202 C.ar      1 <0>         0.3851
      5 N1          1.1435   -0.6648   -0.0124 N.ar      1 <0>        -0.5029
      6 C5          0.0021   -0.0041    0.0020 C.ar      1 <0>         0.1415
      7 N2          3.4939   -0.7792   -0.0360 N.pl3     1 <0>        -0.3337
      8 C6          3.6483   -2.0514    0.4146 C.2       1 <0>         0.0779
      9 C7          4.9409   -2.4003    0.2205 C.2       1 <0>        -0.2577
     10 C8          5.5984   -1.3126   -0.3653 C.2       1 <0>         0.0632
     11 N3          4.7328   -0.3447   -0.5248 N.2       1 <0>        -0.2701
     12 C9          3.6945    2.0606   -0.0226 C.3       1 <0>         0.1969
     13 N4          4.2249    2.0860   -1.3880 N.am      1 <0>        -0.7182
     14 C10         5.4115    2.6738   -1.6392 C.2       1 <0>         0.7207
     15 O1          6.0416    3.1831   -0.7326 O.2       1 <0>        -0.5715
     16 N5          5.8995    2.6972   -2.8952 N.am      1 <0>        -0.5327
     17 N6          5.1734    2.1104   -3.9399 N.am      1 <0>        -0.5302
     18 C11         5.6614    2.1338   -5.1960 C.2       1 <0>         0.5147
     19 O2          6.7291    2.6628   -5.4220 O.2       1 <0>        -0.5187
     20 C12         4.8803    1.5026   -6.3197 C.3       1 <0>        -0.0895
     21 C13         5.6392    1.6642   -7.6116 C.ar      1 <0>        -0.0850
     22 C14         5.4335    2.7824   -8.3982 C.ar      1 <0>        -0.0726
     23 C15         6.1292    2.9319   -9.5829 C.ar      1 <0>        -0.1523
     24 C16         7.0324    1.9613   -9.9820 C.ar      1 <0>         0.1033
     25 C17         7.2375    0.8419   -9.1934 C.ar      1 <0>        -0.1522
     26 C18         6.5446    0.6971   -8.0064 C.ar      1 <0>        -0.0724
     27 F1          7.7127    2.1062  -11.1402 F         1 <0>        -0.1384
     28 H1         -0.9558    1.9100    0.0259 H         1 <0>         0.1481
     29 H2          1.1974    3.1524    0.0072 H         1 <0>         0.1490
     30 H3         -0.9298   -0.5499    0.0080 H         1 <0>         0.1709
     31 H4          2.8786   -2.6718    0.8494 H         1 <0>         0.1801
     32 H5          5.3869   -3.3508    0.4735 H         1 <0>         0.1568
     33 H6          6.6416   -1.2797   -0.6431 H         1 <0>         0.1903
     34 H7          3.5634    3.0818    0.3353 H         1 <0>         0.0784
     35 H8          4.3923    1.5341    0.6285 H         1 <0>         0.0856
     36 H9          3.7222    1.6797   -2.1113 H         1 <0>         0.3877
     37 H10         6.7534    3.1203   -3.0760 H         1 <0>         0.4427
     38 H11         4.3194    1.6873   -3.7591 H         1 <0>         0.4177
     39 H12         4.7378    0.4421   -6.1122 H         1 <0>         0.1115
     40 H13         3.9090    1.9898   -6.4054 H         1 <0>         0.1116
     41 H14         4.7287    3.5391   -8.0868 H         1 <0>         0.1320
     42 H15         5.9681    3.8053  -10.1974 H         1 <0>         0.1372
     43 H16         7.9415    0.0840   -9.5038 H         1 <0>         0.1373
     44 H17         6.7077   -0.1739   -7.3889 H         1 <0>         0.1321
@<TRIPOS>BOND
     1    1    6 ar
     2    1    2 ar
     3    1   28 1
     4    2    3 ar
     5    2   29 1
     6    3    4 ar
     7    3   12 1
     8    4    5 ar
     9    4    7 1
    10    5    6 ar
    11    6   30 1
    12    7   11 1
    13    7    8 1
    14    8    9 2
    15    8   31 1
    16    9   10 1
    17    9   32 1
    18   10   11 2
    19   10   33 1
    20   12   13 1
    21   12   34 1
    22   12   35 1
    23   13   14 am
    24   13   36 1
    25   14   15 2
    26   14   16 am
    27   16   17 1
    28   16   37 1
    29   17   18 am
    30   17   38 1
    31   18   19 2
    32   18   20 1
    33   20   21 1
    34   20   39 1
    35   20   40 1
    36   21   26 ar
    37   21   22 ar
    38   22   23 ar
    39   22   41 1
    40   23   24 ar
    41   23   42 1
    42   24   25 ar
    43   24   27 1
    44   25   26 ar
    45   25   43 1
    46   26   44 1
@<TRIPOS>MOLECULE
ZINC31072960
   51    51     0     0     0
SMALL
USER_CHARGES

@<TRIPOS>ATOM
      1 C1         -0.0187    1.5258    0.0104 C.3       1 <0>        -0.1513
      2 C2          0.0021   -0.0041    0.0020 C.3       1 <0>        -0.1355
      3 C3          0.7182   -0.4975   -1.2568 C.3       1 <0>         0.1318
      4 N1          0.7381   -1.9623   -1.2648 N.am      1 <0>        -0.7365
      5 C4          1.3211   -2.6228   -2.2848 C.2       1 <0>         0.6931
      6 O1          1.8303   -2.0031   -3.1980 O.2       1 <0>        -0.5267
      7 N2          1.3394   -3.9704   -2.2922 N.am      1 <0>        -0.6886
      8 C5          1.9224   -4.6308   -3.3122 C.2       1 <0>         0.5163
      9 O2          2.4304   -4.0127   -4.2231 O.2       1 <0>        -0.4598
     10 C6          1.9428   -6.1377   -3.3205 C.3       1 <0>         0.1039
     11 N3          2.6285   -6.6101   -4.5259 N.pl3     1 <0>        -0.7367
     12 C7          2.7726   -7.9803   -4.7556 C.ar      1 <0>         0.2032
     13 C8          2.2612   -8.8965   -3.8450 C.ar      1 <0>        -0.1060
     14 C9          2.4050  -10.2503   -4.0755 C.ar      1 <0>        -0.6299
     15 C10         3.0577  -10.6946   -5.2111 C.ar      1 <0>        -0.0713
     16 C11         3.5682   -9.7855   -6.1191 C.ar      1 <0>        -0.0580
     17 C12         3.4224   -8.4299   -5.8978 C.ar      1 <0>        -0.0987
     18 C13         3.9734   -7.4398   -6.8914 C.3       1 <0>        -0.1203
     19 C14         4.2795  -10.2743   -7.3546 C.3       1 <0>        -0.1206
     20 S1          1.7568  -11.4132   -2.9213 S.o2      1 <0>         2.6913
     21 O3          2.4996  -12.6125   -3.0924 O.2       1 <0>        -0.9514
     22 O4          1.6720  -10.7413   -1.6720 O.2       1 <0>        -0.9560
     23 N4          0.2028  -11.7488   -3.3847 N.pl3     1 <0>        -1.0047
     24 C15        -0.0630  -12.8504   -4.3132 C.3       1 <0>         0.0915
     25 C16        -0.9062  -10.9441   -2.8661 C.3       1 <0>         0.0848
     26 H1          1.0039    1.9031    0.0027 H         1 <0>         0.0594
     27 H2         -0.5459    1.8868   -0.8726 H         1 <0>         0.0593
     28 H3         -0.5289    1.8773    0.9072 H         1 <0>         0.0625
     29 H4          0.5293   -0.3651    0.8851 H         1 <0>         0.0704
     30 H5         -1.0205   -0.3814    0.0098 H         1 <0>         0.0702
     31 H6          0.1910   -0.1364   -2.1398 H         1 <0>         0.0710
     32 H7          1.7408   -0.1202   -1.2645 H         1 <0>         0.0711
     33 H8          0.3316   -2.4569   -0.5361 H         1 <0>         0.4000
     34 H9          0.9329   -4.4650   -1.5635 H         1 <0>         0.4134
     35 H10         2.4700   -6.4987   -2.4375 H         1 <0>         0.1027
     36 H11         0.9202   -6.5149   -3.3128 H         1 <0>         0.1003
     37 H12         2.9825   -5.9714   -5.1643 H         1 <0>         0.4145
     38 H13         1.7521   -8.5502   -2.9577 H         1 <0>         0.1362
     39 H14         3.1691  -11.7541   -5.3888 H         1 <0>         0.1370
     40 H15         5.0010   -7.1918   -6.6256 H         1 <0>         0.0767
     41 H16         3.9517   -7.8767   -7.8898 H         1 <0>         0.0774
     42 H17         3.3660   -6.5349   -6.8776 H         1 <0>         0.0666
     43 H18         3.5589  -10.4007   -8.1626 H         1 <0>         0.0759
     44 H19         5.0341   -9.5460   -7.6514 H         1 <0>         0.0727
     45 H20         4.7598  -11.2296   -7.1433 H         1 <0>         0.0730
     46 H21        -0.2262  -13.7691   -3.7498 H         1 <0>         0.0627
     47 H22        -0.9515  -12.6227   -4.9022 H         1 <0>         0.0751
     48 H23         0.7908  -12.9789   -4.9784 H         1 <0>         0.0731
     49 H24        -0.5168  -10.1782   -2.1954 H         1 <0>         0.0844
     50 H25        -1.4292  -10.4687   -3.6959 H         1 <0>         0.0625
     51 H26        -1.5977  -11.5867   -2.3212 H         1 <0>         0.0683
@<TRIPOS>BOND
     1    1    2 1
     2    1   26 1
     3    1   27 1
     4    1   28 1
     5    2    3 1
     6    2   29 1
     7    2   30 1
     8    3    4 1
     9    3   31 1
    10    3   32 1
    11    4    5 am
    12    4   33 1
    13    5    6 2
    14    5    7 am
    15    7    8 am
    16    7   34 1
    17    8    9 2
    18    8   10 1
    19   10   11 1
    20   10   35 1
    21   10   36 1
    22   11   12 1
    23   11   37 1
    24   12   17 ar
    25   12   13 ar
    26   13   14 ar
    27   13   38 1
    28   14   15 ar
    29   14   20 1
    30   15   16 ar
    31   15   39 1
    32   16   17 ar
    33   16   19 1
    34   17   18 1
    35   18   40 1
    36   18   41 1
    37   18   42 1
    38   19   43 1
    39   19   44 1
    40   19   45 1
    41   20   21 2
    42   20   22 2
    43   20   23 1
    44   23   24 1
    45   23   25 1
    46   24   46 1
    47   24   47 1
    48   24   48 1
    49   25   49 1
    50   25   50 1
    51   25   51 1
@<TRIPOS>MOLECULE
ZINC65179344
   52    53     0     0     0
SMALL
USER_CHARGES

@<TRIPOS>ATOM
      1 C1         -0.5386    1.8026   -0.2328 C.3       1 <0>        -0.1499
      2 C2         -0.2298    0.3062   -0.1550 C.3       1 <0>        -0.1092
      3 C3          0.5121   -0.1280   -1.4207 C.3       1 <0>        -0.1465
      4 C4          0.6450    0.0290    1.0693 C.3       1 <0>         0.1382
      5 N1         -0.1097    0.3328    2.2876 N.am      1 <0>        -0.7425
      6 C5          0.4635    0.1627    3.4955 C.2       1 <0>         0.7128
      7 O1          1.6070   -0.2429    3.5740 O.2       1 <0>        -0.5683
      8 N2         -0.2308    0.4423    4.6163 N.am      1 <0>        -0.5308
      9 N3         -1.5484    0.9097    4.5259 N.am      1 <0>        -0.5300
     10 C6         -2.2427    1.1893    5.6467 C.2       1 <0>         0.5075
     11 O2         -1.7269    1.0362    6.7336 O.2       1 <0>        -0.5076
     12 C7         -3.6600    1.6920    5.5494 C.3       1 <0>         0.1341
     13 C8         -3.6874    3.0440    4.8057 C.3       1 <0>        -0.1288
     14 C9         -4.7673    3.8449    5.5802 C.3       1 <0>        -0.1297
     15 C10        -4.5385    3.3527    7.0311 C.3       1 <0>         0.0929
     16 N4         -4.2020    1.9237    6.8963 N.am      1 <0>        -0.6021
     17 C11        -4.3647    0.9850    7.8496 C.2       1 <0>         0.5949
     18 O3         -4.1438   -0.1835    7.5963 O.2       1 <0>        -0.5006
     19 C12        -4.8108    1.3754    9.2007 C.ar      1 <0>        -0.1525
     20 C13        -4.3724    2.5756    9.7658 C.ar      1 <0>        -0.0389
     21 C14        -4.7931    2.9345   11.0289 C.ar      1 <0>        -0.0820
     22 C15        -5.6497    2.1091   11.7412 C.ar      1 <0>        -0.0425
     23 C16        -6.0898    0.9207   11.1936 C.ar      1 <0>        -0.2042
     24 C17        -5.6811    0.5472    9.9219 C.ar      1 <0>         0.1870
     25 O4         -6.1180   -0.6176    9.3806 O.3       1 <0>        -0.2897
     26 C18        -7.0033   -1.4101   10.1745 C.3       1 <0>         0.0208
     27 Cl1        -4.2475    4.4257   11.7306 Cl        1 <0>        -0.0607
     28 H1          0.3931    2.3620   -0.3178 H         1 <0>         0.0597
     29 H2         -1.1618    2.0001   -1.1050 H         1 <0>         0.0606
     30 H3         -1.0671    2.1120    0.6689 H         1 <0>         0.0513
     31 H4         -1.1614   -0.2532   -0.0700 H         1 <0>         0.0775
     32 H5          1.4438    0.4313   -1.5057 H         1 <0>         0.0600
     33 H6          0.7321   -1.1941   -1.3652 H         1 <0>         0.0597
     34 H7         -0.1111    0.0695   -2.2929 H         1 <0>         0.0623
     35 H8          0.9385   -1.0208    1.0760 H         1 <0>         0.0712
     36 H9          1.5363    0.6551    1.0284 H         1 <0>         0.0718
     37 H10        -1.0220    0.6565    2.2250 H         1 <0>         0.3900
     38 H11         0.1818    0.3199    5.4856 H         1 <0>         0.4438
     39 H12        -1.9610    1.0321    3.6565 H         1 <0>         0.4173
     40 H13        -4.2762    0.9638    5.0220 H         1 <0>         0.1120
     41 H14        -2.7189    3.5397    4.8710 H         1 <0>         0.0865
     42 H15        -3.9819    2.9060    3.7653 H         1 <0>         0.0984
     43 H16        -4.5913    4.9175    5.4992 H         1 <0>         0.0945
     44 H17        -5.7681    3.5875    5.2336 H         1 <0>         0.0855
     45 H18        -3.7120    3.8954    7.4899 H         1 <0>         0.0749
     46 H19        -5.4471    3.4744    7.6208 H         1 <0>         0.0875
     47 H20        -3.7049    3.2210    9.2143 H         1 <0>         0.1474
     48 H21        -5.9742    2.3974   12.7301 H         1 <0>         0.1429
     49 H22        -6.7570    0.2830   11.7546 H         1 <0>         0.1465
     50 H23        -7.2754   -2.3115    9.6253 H         1 <0>         0.1063
     51 H24        -6.5074   -1.6873   11.1048 H         1 <0>         0.0609
     52 H25        -7.9023   -0.8361   10.3990 H         1 <0>         0.0598
@<TRIPOS>BOND
     1    1    2 1
     2    1   28 1
     3    1   29 1
     4    1   30 1
     5    2    3 1
     6    2    4 1
     7    2   31 1
     8    3   32 1
     9    3   33 1
    10    3   34 1
    11    4    5 1
    12    4   35 1
    13    4   36 1
    14    5    6 am
    15    5   37 1
    16    6    7 2
    17    6    8 am
    18    8    9 1
    19    8   38 1
    20    9   10 am
    21    9   39 1
    22   10   11 2
    23   10   12 1
    24   12   16 1
    25   12   13 1
    26   12   40 1
    27   13   14 1
    28   13   41 1
    29   13   42 1
    30   14   15 1
    31   14   43 1
    32   14   44 1
    33   15   16 1
    34   15   45 1
    35   15   46 1
    36   16   17 am
    37   17   18 2
    38   17   19 1
    39   19   24 ar
    40   19   20 ar
    41   20   21 ar
    42   20   47 1
    43   21   22 ar
    44   21   27 1
    45   22   23 ar
    46   22   48 1
    47   23   24 ar
    48   23   49 1
    49   24   25 1
    50   25   26 1
    51   26   50 1
    52   26   51 1
    53   26   52 1
@<TRIPOS>MOLECULE
ZINC67396922
   42    43     0     0     0
SMALL
USER_CHARGES

@<TRIPOS>ATOM
      1 C1         -0.0028    1.5604    0.0307 C.3       1 <0>        -0.1672
      2 C2          0.0127    0.0306    0.0112 C.3       1 <0>         0.1449
      3 H1         -1.0111   -0.3433    0.0149 H         1 <0>         0.0982
      4 C3          0.7289   -0.4561   -1.2502 C.3       1 <0>        -0.0897
      5 C4          0.6373   -1.9581   -1.3319 C.ar      1 <0>        -0.0976
      6 C5          1.6147   -2.7420   -0.7471 C.ar      1 <0>        -0.0979
      7 C6          1.5333   -4.1191   -0.8210 C.ar      1 <0>        -0.1419
      8 C7          0.4694   -4.7154   -1.4824 C.ar      1 <0>         0.1038
      9 C8         -0.5102   -3.9266   -2.0680 C.ar      1 <0>        -0.1420
     10 C9         -0.4269   -2.5501   -1.9868 C.ar      1 <0>        -0.0970
     11 O1          0.3873   -6.0698   -1.5569 O.3       1 <0>        -0.4997
     12 N1          0.7181   -0.4657    1.1955 N.am      1 <0>        -0.6859
     13 C10         0.0566   -0.6160    2.3601 C.2       1 <0>         0.5159
     14 O2         -1.1234   -0.3402    2.4277 O.2       1 <0>        -0.5079
     15 C11         0.7755   -1.1219    3.5672 C.2       1 <0>         0.5123
     16 O3          1.9557   -1.3978    3.4996 O.2       1 <0>        -0.4880
     17 N2          0.1140   -1.2722    4.7318 N.am      1 <0>        -0.6404
     18 C12         0.7624   -1.8336    5.8372 C.ar      1 <0>         0.1021
     19 C13         2.1136   -1.5922    6.0476 C.ar      1 <0>        -0.0070
     20 C14         2.7519   -2.1473    7.1393 C.ar      1 <0>        -0.0823
     21 C15         2.0462   -2.9447    8.0251 C.ar      1 <0>         0.1952
     22 C16         0.6989   -3.1883    7.8187 C.ar      1 <0>        -0.1731
     23 C17         0.0534   -2.6299    6.7306 C.ar      1 <0>         0.1681
     24 F1         -1.2627   -2.8621    6.5325 F         1 <0>        -0.1032
     25 F2          2.6737   -3.4861    9.0920 F         1 <0>        -0.0884
     26 N3          4.1924   -1.8901    7.3629 N.pl3     1 <0>         0.0349
     27 O4          4.8093   -1.1945    6.5901 O.2       1 <0>        -0.1389
     28 O5          4.7520   -2.3756    8.3183 O.3       1 <0>        -0.1358
     29 H2          1.0211    1.9342    0.0270 H         1 <0>         0.0634
     30 H3         -0.5276    1.9296   -0.8504 H         1 <0>         0.0748
     31 H4         -0.5130    1.9071    0.9293 H         1 <0>         0.0649
     32 H5          0.2577   -0.0151   -2.1286 H         1 <0>         0.0979
     33 H6          1.7765   -0.1576   -1.2113 H         1 <0>         0.0848
     34 H7          2.4426   -2.2773   -0.2324 H         1 <0>         0.1248
     35 H8          2.2973   -4.7309   -0.3647 H         1 <0>         0.1290
     36 H9         -1.3393   -4.3884   -2.5834 H         1 <0>         0.1297
     37 H10        -1.1916   -1.9357   -2.4387 H         1 <0>         0.1284
     38 H11        -0.0973   -6.4753   -0.8249 H         1 <0>         0.3916
     39 H12         1.6611   -0.6862    1.1414 H         1 <0>         0.4130
     40 H13        -0.8116   -0.9912    4.8036 H         1 <0>         0.4344
     41 H14         2.6652   -0.9709    5.3575 H         1 <0>         0.1897
     42 H15         0.1508   -3.8110    8.5104 H         1 <0>         0.1824
@<TRIPOS>BOND
     1    1    2 1
     2    1   29 1
     3    1   30 1
     4    1   31 1
     5    2    3 1
     6    2    4 1
     7    2   12 1
     8    4    5 1
     9    4   32 1
    10    4   33 1
    11    5   10 ar
    12    5    6 ar
    13    6    7 ar
    14    6   34 1
    15    7    8 ar
    16    7   35 1
    17    8    9 ar
    18    8   11 1
    19    9   10 ar
    20    9   36 1
    21   10   37 1
    22   11   38 1
    23   12   13 am
    24   12   39 1
    25   13   14 2
    26   13   15 1
    27   15   16 2
    28   15   17 am
    29   17   18 1
    30   17   40 1
    31   18   23 ar
    32   18   19 ar
    33   19   20 ar
    34   19   41 1
    35   20   21 ar
    36   20   26 1
    37   21   22 ar
    38   21   25 1
    39   22   23 ar
    40   22   42 1
    41   23   24 1
    42   26   27 2
    43   26   28 1
@<TRIPOS>MOLECULE
ZINC07386308
   42    43     0     0     0
SMALL
USER_CHARGES
N-[4-[(2-chlorobenzoyl)aminosulfamoyl]-2-methoxy-phenyl]acetamide
@<TRIPOS>ATOM
      1 C1          1.2011    2.1104   -0.5644 C.3       1 <0>        -0.1709
      2 C2         -0.0956    1.3425   -0.5675 C.2       1 <0>         0.5126
      3 O1         -0.1550    0.2549   -1.1011 O.2       1 <0>        -0.5203
      4 N1         -1.1906    1.8667    0.0178 N.am      1 <0>        -0.6689
      5 C3         -2.4196    1.1993   -0.0704 C.ar      1 <0>         0.1808
      6 C4         -2.4594   -0.1873   -0.0719 C.ar      1 <0>        -0.1085
      7 C5         -3.6727   -0.8433   -0.1591 C.ar      1 <0>        -0.0255
      8 C6         -4.8486   -0.1208   -0.2449 C.ar      1 <0>        -0.6624
      9 C7         -4.8167    1.2613   -0.2439 C.ar      1 <0>        -0.0995
     10 C8         -3.6049    1.9265   -0.1511 C.ar      1 <0>         0.0861
     11 O2         -3.5724    3.2859   -0.1439 O.3       1 <0>        -0.3138
     12 C9         -4.8266    3.9653   -0.2296 C.3       1 <0>         0.0211
     13 S1         -6.3917   -0.9640   -0.3563 S.o2      1 <0>         2.6958
     14 O3         -7.3019   -0.0652   -0.9753 O.2       1 <0>        -0.9367
     15 O4         -6.1132   -2.2522   -0.8876 O.2       1 <0>        -0.9312
     16 N2         -6.9350   -1.1973    1.1905 N.pl3     1 <0>        -0.9004
     17 N3         -7.1717   -0.0959    2.0234 N.am      1 <0>        -0.5090
     18 C10        -8.3771    0.0622    2.6053 C.2       1 <0>         0.5587
     19 O5         -9.2589   -0.7509    2.4074 O.2       1 <0>        -0.4870
     20 C11        -8.6268    1.2239    3.4837 C.ar      1 <0>        -0.1266
     21 C12        -7.6145    2.1567    3.7178 C.ar      1 <0>        -0.0773
     22 C13        -7.8557    3.2414    4.5344 C.ar      1 <0>        -0.1216
     23 C14        -9.0947    3.4018    5.1305 C.ar      1 <0>        -0.0751
     24 C15       -10.1007    2.4796    4.9085 C.ar      1 <0>        -0.1170
     25 C16        -9.8749    1.3909    4.0885 C.ar      1 <0>         0.0183
     26 Cl1       -11.1385    0.2334    3.8109 Cl        1 <0>        -0.0235
     27 H1          1.2498    2.7446   -1.4496 H         1 <0>         0.1014
     28 H2          1.2539    2.7307    0.3303 H         1 <0>         0.0853
     29 H3          2.0374    1.4114   -0.5718 H         1 <0>         0.1011
     30 H4         -1.1280    2.7059    0.5002 H         1 <0>         0.4195
     31 H5         -1.5426   -0.7541   -0.0047 H         1 <0>         0.1594
     32 H6         -3.7025   -1.9229   -0.1598 H         1 <0>         0.1504
     33 H7         -5.7370    1.8226   -0.3111 H         1 <0>         0.1510
     34 H8         -5.4515    3.6828    0.6177 H         1 <0>         0.0590
     35 H9         -4.6583    5.0421   -0.2139 H         1 <0>         0.1081
     36 H10        -5.3267    3.6892   -1.1579 H         1 <0>         0.0626
     37 H11        -7.0893   -2.0965    1.5199 H         1 <0>         0.4318
     38 H12        -6.4682    0.5529    2.1813 H         1 <0>         0.4162
     39 H13        -6.6458    2.0309    3.2572 H         1 <0>         0.1321
     40 H14        -7.0744    3.9653    4.7129 H         1 <0>         0.1388
     41 H15        -9.2763    4.2512    5.7724 H         1 <0>         0.1408
     42 H16       -11.0648    2.6105    5.3774 H         1 <0>         0.1444
@<TRIPOS>BOND
     1    1    2 1
     2    1   27 1
     3    1   28 1
     4    1   29 1
     5    2    3 2
     6    2    4 am
     7    4    5 1
     8    4   30 1
     9    5   10 ar
    10    5    6 ar
    11    6    7 ar
    12    6   31 1
    13    7    8 ar
    14    7   32 1
    15    8    9 ar
    16    8   13 1
    17    9   10 ar
    18    9   33 1
    19   10   11 1
    20   11   12 1
    21   12   34 1
    22   12   35 1
    23   12   36 1
    24   13   14 2
    25   13   15 2
    26   13   16 1
    27   16   17 1
    28   16   37 1
    29   17   18 am
    30   17   38 1
    31   18   19 2
    32   18   20 1
    33   20   25 ar
    34   20   21 ar
    35   21   22 ar
    36   21   39 1
    37   22   23 ar
    38   22   40 1
    39   23   24 ar
    40   23   41 1
    41   24   25 ar
    42   24   42 1
    43   25   26 1
@<TRIPOS>MOLECULE
ZINC26900336
   49    50     0     0     0
SMALL
USER_CHARGES
[(1S)-1-[4-(4-chlorophenyl)sulfonylpiperazine-1-carbonyl]-2-methyl-propyl]urea
@<TRIPOS>ATOM
      1 C1         -2.8399    1.4277   -5.6470 C.3       1 <0>        -0.1629
      2 C2         -4.1915    2.1408   -5.7204 C.3       1 <0>        -0.0963
      3 C3         -5.1998    1.2491   -6.4479 C.3       1 <0>        -0.1355
      4 C4         -4.6939    2.4286   -4.3042 C.3       1 <0>         0.1524
      5 H1         -4.8627    1.4950   -3.7475 H         1 <0>         0.1092
      6 C5         -3.6861    3.2813   -3.5773 C.2       1 <0>         0.5216
      7 O1         -3.7153    4.4880   -3.6951 O.2       1 <0>        -0.5318
      8 N1         -2.7523    2.7029   -2.7963 N.am      1 <0>        -0.6038
      9 C6         -1.6933    3.5098   -2.1741 C.3       1 <0>         0.0933
     10 C7         -0.3329    2.9247   -2.5730 C.3       1 <0>         0.1028
     11 N2         -0.3552    1.4756   -2.3288 N.pl3     1 <0>        -0.9943
     12 C8         -1.4109    0.6679   -2.9556 C.3       1 <0>         0.0920
     13 C9         -2.7746    1.2538   -2.5521 C.3       1 <0>         0.0805
     14 S1          0.7928    0.7648   -1.3701 S.o2      1 <0>         2.6903
     15 O2          0.8616   -0.5993   -1.7624 O.2       1 <0>        -0.9463
     16 O3          1.9263    1.6215   -1.3906 O.2       1 <0>        -0.9465
     17 C10         0.1772    0.7835    0.2808 C.ar      1 <0>        -0.6792
     18 C11         0.4524    1.8559    1.1087 C.ar      1 <0>        -0.0069
     19 C12        -0.0349    1.8738    2.4019 C.ar      1 <0>        -0.1304
     20 C13        -0.7888    0.8130    2.8715 C.ar      1 <0>         0.0182
     21 C14        -1.0591   -0.2626    2.0443 C.ar      1 <0>        -0.1304
     22 C15        -0.5760   -0.2767    0.7495 C.ar      1 <0>        -0.0071
     23 Cl1        -1.3957    0.8317    4.4979 Cl        1 <0>        -0.0506
     24 N3         -5.9736    3.1382   -4.3748 N.am      1 <0>        -0.7482
     25 C16        -7.1224    2.4451   -4.5024 C.2       1 <0>         0.7119
     26 O4         -7.0967    1.2308   -4.5589 O.2       1 <0>        -0.5983
     27 N4         -8.2997    3.0979   -4.5673 N.am      1 <0>        -0.8912
     28 H2         -2.1150    2.0688   -5.1240 H         1 <0>         0.0601
     29 H3         -2.4787    1.2208   -6.6652 H         1 <0>         0.0675
     30 H4         -2.9542    0.4808   -5.0990 H         1 <0>         0.0642
     31 H5         -4.0771    3.0877   -6.2683 H         1 <0>         0.0786
     32 H6         -6.1716    1.7618   -6.5007 H         1 <0>         0.0575
     33 H7         -5.3141    0.3022   -5.8999 H         1 <0>         0.0653
     34 H8         -4.8386    1.0423   -7.4661 H         1 <0>         0.0505
     35 H9         -1.7707    4.5495   -2.5247 H         1 <0>         0.1101
     36 H10        -1.8062    3.4823   -1.0803 H         1 <0>         0.0760
     37 H11        -0.1474    3.1217   -3.6392 H         1 <0>         0.0867
     38 H12         0.4589    3.3936   -1.9704 H         1 <0>         0.1083
     39 H13        -1.2964    0.6997   -4.0492 H         1 <0>         0.0959
     40 H14        -1.3310   -0.3729   -2.6087 H         1 <0>         0.1092
     41 H15        -2.9628    1.0647   -1.4849 H         1 <0>         0.0817
     42 H16        -3.5729    0.7930   -3.1525 H         1 <0>         0.1073
     43 H17         1.0447    2.6819    0.7434 H         1 <0>         0.1500
     44 H18         0.1765    2.7136    3.0472 H         1 <0>         0.1456
     45 H19        -1.6479   -1.0908    2.4102 H         1 <0>         0.1459
     46 H20        -0.7873   -1.1161    0.1035 H         1 <0>         0.1502
     47 H21        -5.9969    4.2368   -4.3237 H         1 <0>         0.4241
     48 H22        -9.2373    2.5321   -4.6714 H         1 <0>         0.4383
     49 H23        -8.3230    4.1965   -4.5161 H         1 <0>         0.4145
@<TRIPOS>BOND
     1    1    2 1
     2    1   28 1
     3    1   29 1
     4    1   30 1
     5    2    3 1
     6    2    4 1
     7    2   31 1
     8    3   32 1
     9    3   33 1
    10    3   34 1
    11    4    5 1
    12    4    6 1
    13    4   24 1
    14    6    7 2
    15    6    8 am
    16    8   13 1
    17    8    9 1
    18    9   10 1
    19    9   35 1
    20    9   36 1
    21   10   11 1
    22   10   37 1
    23   10   38 1
    24   11   12 1
    25   11   14 1
    26   12   13 1
    27   12   39 1
    28   12   40 1
    29   13   41 1
    30   13   42 1
    31   14   15 2
    32   14   16 2
    33   14   17 1
    34   17   22 ar
    35   17   18 ar
    36   18   19 ar
    37   18   43 1
    38   19   20 ar
    39   19   44 1
    40   20   21 ar
    41   20   23 1
    42   21   22 ar
    43   21   45 1
    44   22   46 1
    45   24   25 am
    46   24   47 1
    47   25   26 2
    48   25   27 am
    49   27   48 1
    50   27   49 1
@<TRIPOS>MOLECULE
ZINC51131002
   52    54     0     0     0
SMALL
USER_CHARGES

@<TRIPOS>ATOM
      1 C1         -0.0187    1.5258    0.0104 C.3       1 <0>        -0.1480
      2 C2          0.0021   -0.0041    0.0020 C.3       1 <0>        -0.0869
      3 H1         -1.0199   -0.3831    0.0097 H         1 <0>         0.0769
      4 C3          0.7237   -0.5003   -1.2542 C.3       1 <0>        -0.1135
      5 C4          0.5370   -2.0123   -1.3989 C.3       1 <0>        -0.0627
      6 C5          0.9354   -2.6802   -0.0910 C.2       1 <0>        -0.0579
      7 C6          1.0195   -1.9774    1.0588 C.2       1 <0>        -0.2224
      8 S1          1.5070   -3.1642    2.2763 S.3       1 <0>         0.3043
      9 C7          1.5983   -4.5390    1.3164 C.2       1 <0>         0.0462
     10 C8          1.2536   -4.0909    0.0499 C.2       1 <0>        -0.2171
     11 C9          1.2126   -5.0007   -1.0968 C.2       1 <0>         0.5308
     12 O1          2.2084   -5.1703   -1.7745 O.2       1 <0>        -0.4929
     13 O2          0.0707   -5.6508   -1.4014 O.3       1 <0>        -0.3466
     14 C10         0.1027   -6.5227   -2.5331 C.3       1 <0>         0.0289
     15 N1          1.9402   -5.8260    1.7013 N.am      1 <0>        -0.6225
     16 C11         2.2498   -6.0850    2.9872 C.2       1 <0>         0.5111
     17 O3          2.2293   -5.1920    3.8076 O.2       1 <0>        -0.4757
     18 C12         2.6214   -7.4842    3.4056 C.3       1 <0>         0.0418
     19 N2          2.9124   -7.5037    4.8454 N.3       1 <0>        -0.5167
     20 C13         4.1200   -6.7224    5.1495 C.3       1 <0>         0.0063
     21 C14         4.3519   -6.7199    6.6628 C.3       1 <0>         0.0659
     22 O4          4.4486   -8.0690    7.1275 O.3       1 <0>        -0.3556
     23 C15         3.2892   -8.8585    6.8486 C.3       1 <0>         0.0779
     24 H2          2.4240   -8.4240    7.3492 H         1 <0>         0.0977
     25 C16         3.0465   -8.8827    5.3371 C.3       1 <0>         0.0295
     26 C17         3.5057  -10.2641    7.3469 C.2       1 <0>         0.5243
     27 O5          4.5814  -10.5860    7.8055 O.2       1 <0>        -0.5148
     28 N3          2.5040  -11.1635    7.2831 N.am      1 <0>        -0.8511
     29 C18         0.7496   -0.5152    1.2424 C.3       1 <0>        -0.0297
     30 H3          1.0039    1.9031    0.0027 H         1 <0>         0.0573
     31 H4         -0.5459    1.8868   -0.8726 H         1 <0>         0.0585
     32 H5         -0.5289    1.8773    0.9072 H         1 <0>         0.0583
     33 H6          0.3118    0.0008   -2.1302 H         1 <0>         0.0721
     34 H7          1.7867   -0.2727   -1.1749 H         1 <0>         0.0680
     35 H8         -0.5077   -2.2325   -1.6185 H         1 <0>         0.0809
     36 H9          1.1688   -2.3832   -2.2060 H         1 <0>         0.0737
     37 H10         0.8485   -7.3009   -2.3713 H         1 <0>         0.0605
     38 H11        -0.8773   -6.9808   -2.6667 H         1 <0>         0.1048
     39 H12         0.3613   -5.9514   -3.4247 H         1 <0>         0.0628
     40 H13         1.9566   -6.5402    1.0452 H         1 <0>         0.4182
     41 H14         1.7924   -8.1592    3.1933 H         1 <0>         0.1181
     42 H15         3.5034   -7.8067    2.8523 H         1 <0>         0.0785
     43 H16         4.9790   -7.1710    4.6504 H         1 <0>         0.0464
     44 H17         3.9887   -5.6985    4.7997 H         1 <0>         0.1084
     45 H18         5.2774   -6.1900    6.8883 H         1 <0>         0.1087
     46 H19         3.5176   -6.2232    7.1581 H         1 <0>         0.0679
     47 H20         2.1316   -9.4357    5.1242 H         1 <0>         0.0955
     48 H21         3.8883   -9.3658    4.8410 H         1 <0>         0.0558
     49 H22         1.6437  -10.9061    6.9164 H         1 <0>         0.4026
     50 H23         2.6434  -12.0682    7.6039 H         1 <0>         0.4084
     51 H24         1.6929    0.0204    1.3495 H         1 <0>         0.0840
     52 H25         0.1364   -0.3614    2.1303 H         1 <0>         0.0830
@<TRIPOS>BOND
     1    1    2 1
     2    1   30 1
     3    1   31 1
     4    1   32 1
     5    2    3 1
     6    2   29 1
     7    2    4 1
     8    4    5 1
     9    4   33 1
    10    4   34 1
    11    5    6 1
    12    5   35 1
    13    5   36 1
    14    6   10 1
    15    6    7 2
    16    7    8 1
    17    7   29 1
    18    8    9 1
    19    9   10 2
    20    9   15 1
    21   10   11 1
    22   11   12 2
    23   11   13 1
    24   13   14 1
    25   14   37 1
    26   14   38 1
    27   14   39 1
    28   15   16 am
    29   15   40 1
    30   16   17 2
    31   16   18 1
    32   18   19 1
    33   18   41 1
    34   18   42 1
    35   19   25 1
    36   19   20 1
    37   20   21 1
    38   20   43 1
    39   20   44 1
    40   21   22 1
    41   21   45 1
    42   21   46 1
    43   22   23 1
    44   23   24 1
    45   23   25 1
    46   23   26 1
    47   25   47 1
    48   25   48 1
    49   26   27 2
    50   26   28 am
    51   28   49 1
    52   28   50 1
    53   29   51 1
    54   29   52 1
@<TRIPOS>MOLECULE
ZINC65146245
   56    58     0     0     0
SMALL
USER_CHARGES

@<TRIPOS>ATOM
      1 C1         -0.0167    1.3781    0.0096 C.ar      1 <0>        -0.1183
      2 C2          1.1709    2.0855    0.0021 C.ar      1 <0>        -0.1188
      3 C3          2.3773    1.4107   -0.0130 C.ar      1 <0>        -0.1051
      4 C4          2.3960    0.0285   -0.0201 C.ar      1 <0>        -0.0710
      5 C5          1.2084   -0.6789   -0.0117 C.ar      1 <0>        -0.1047
      6 C6          0.0021   -0.0041    0.0020 C.ar      1 <0>        -0.1184
      7 C7          3.7112   -0.7071   -0.0376 C.3       1 <0>        -0.1005
      8 C8          4.1644   -0.9594    1.3773 C.2       1 <0>         0.5187
      9 O1          3.4863   -0.5793    2.3082 O.2       1 <0>        -0.5238
     10 N1          5.3234   -1.6075    1.6082 N.am      1 <0>        -0.6138
     11 C9          6.1587   -2.0687    0.4909 C.3       1 <0>         0.1012
     12 C10         7.5784   -1.5250    0.6795 C.3       1 <0>        -0.1359
     13 C11         8.0966   -1.9311    2.0610 C.3       1 <0>        -0.1011
     14 C12         7.1996   -1.3249    3.1427 C.3       1 <0>        -0.1114
     15 C13         5.7785   -1.8609    2.9821 C.3       1 <0>         0.1191
     16 C14         7.7293   -1.6985    4.5031 C.2       1 <0>         0.5238
     17 O2          8.7262   -2.3826    4.5988 O.2       1 <0>        -0.5226
     18 N2          7.0951   -1.2726    5.6135 N.am      1 <0>        -0.5292
     19 N3          7.5876   -1.6200    6.8782 N.am      1 <0>        -0.5323
     20 C15         6.9535   -1.1941    7.9886 C.2       1 <0>         0.7136
     21 O3          7.3808   -1.4956    9.0862 O.2       1 <0>        -0.5698
     22 N4          5.8456   -0.4340    7.8823 N.am      1 <0>        -0.7370
     23 C16         5.1563    0.0289    9.0893 C.3       1 <0>         0.1271
     24 C17         3.9390    0.8663    8.6919 C.3       1 <0>         0.0663
     25 C18         3.2728    1.4538    9.9546 C.3       1 <0>        -0.1476
     26 C19         1.7616    1.3260    9.6197 C.3       1 <0>        -0.1563
     27 C20         1.7526    0.0125    8.7979 C.3       1 <0>         0.0492
     28 O4          2.9713    0.0371    8.0379 O.3       1 <0>        -0.3753
     29 H1         -0.9591    1.9053    0.0259 H         1 <0>         0.1216
     30 H2          1.1563    3.1654    0.0076 H         1 <0>         0.1221
     31 H3          3.3051    1.9634   -0.0196 H         1 <0>         0.1187
     32 H4          1.2231   -1.7588   -0.0176 H         1 <0>         0.1190
     33 H5         -0.9258   -0.5567    0.0082 H         1 <0>         0.1222
     34 H6          3.5884   -1.6586   -0.5549 H         1 <0>         0.1044
     35 H7          4.4573   -0.1052   -0.5563 H         1 <0>         0.1046
     36 H8          6.1833   -3.1583    0.4786 H         1 <0>         0.0760
     37 H9          5.7479   -1.6998   -0.4489 H         1 <0>         0.0911
     38 H10         8.2312   -1.9378   -0.0897 H         1 <0>         0.0866
     39 H11         7.5651   -0.4379    0.6010 H         1 <0>         0.0714
     40 H12         8.0863   -3.0176    2.1478 H         1 <0>         0.0774
     41 H13         9.1159   -1.5665    2.1882 H         1 <0>         0.0798
     42 H14         7.1898   -0.2396    3.0410 H         1 <0>         0.1090
     43 H15         5.1171   -1.3549    3.6853 H         1 <0>         0.0977
     44 H16         5.7715   -2.9332    3.1774 H         1 <0>         0.0773
     45 H17         6.2978   -0.7256    5.5370 H         1 <0>         0.4208
     46 H18         8.3849   -2.1671    6.9548 H         1 <0>         0.4439
     47 H19         5.5046   -0.1935    7.0066 H         1 <0>         0.3948
     48 H20         4.8304   -0.8312    9.6741 H         1 <0>         0.0756
     49 H21         5.8366    0.6370    9.6856 H         1 <0>         0.0816
     50 H22         4.2463    1.6721    8.0254 H         1 <0>         0.0886
     51 H23         3.5258    0.8652   10.8363 H         1 <0>         0.0839
     52 H24         3.5529    2.4984   10.0907 H         1 <0>         0.0881
     53 H25         1.1653    1.2261   10.5266 H         1 <0>         0.0866
     54 H26         1.4200    2.1682    9.0180 H         1 <0>         0.0807
     55 H27         1.7393   -0.8503    9.4638 H         1 <0>         0.0622
     56 H28         0.8910   -0.0104    8.1306 H         1 <0>         0.0881
@<TRIPOS>BOND
     1    1    6 ar
     2    1    2 ar
     3    1   29 1
     4    2    3 ar
     5    2   30 1
     6    3    4 ar
     7    3   31 1
     8    4    5 ar
     9    4    7 1
    10    5    6 ar
    11    5   32 1
    12    6   33 1
    13    7    8 1
    14    7   34 1
    15    7   35 1
    16    8    9 2
    17    8   10 am
    18   10   15 1
    19   10   11 1
    20   11   12 1
    21   11   36 1
    22   11   37 1
    23   12   13 1
    24   12   38 1
    25   12   39 1
    26   13   14 1
    27   13   40 1
    28   13   41 1
    29   14   15 1
    30   14   16 1
    31   14   42 1
    32   15   43 1
    33   15   44 1
    34   16   17 2
    35   16   18 am
    36   18   19 1
    37   18   45 1
    38   19   20 am
    39   19   46 1
    40   20   21 2
    41   20   22 am
    42   22   23 1
    43   22   47 1
    44   23   24 1
    45   23   48 1
    46   23   49 1
    47   24   28 1
    48   24   25 1
    49   24   50 1
    50   25   26 1
    51   25   51 1
    52   25   52 1
    53   26   27 1
    54   26   53 1
    55   26   54 1
    56   27   28 1
    57   27   55 1
    58   27   56 1
@<TRIPOS>MOLECULE
ZINC67357892
   47    49     0     0     0
SMALL
USER_CHARGES

@<TRIPOS>ATOM
      1 C1         -0.0636    1.5020    0.0159 C.3       1 <0>        -0.1145
      2 C2         -0.0309   -0.0047    0.0059 C.ar      1 <0>        -0.0904
      3 C3         -0.6216   -0.7006   -1.0330 C.ar      1 <0>        -0.0928
      4 C4         -0.5941   -2.0815   -1.0454 C.ar      1 <0>        -0.1158
      5 C5          0.0280   -2.7716   -0.0136 C.ar      1 <0>         0.1525
      6 C6          0.6212   -2.0699    1.0288 C.ar      1 <0>        -0.0651
      7 C7          0.5946   -0.6878    1.0324 C.ar      1 <0>        -0.0903
      8 Cl1         1.4005   -2.9276    2.3214 Cl        1 <0>        -0.0654
      9 N1          0.0572   -4.1710   -0.0232 N.am      1 <0>        -0.6686
     10 C8         -0.0419   -4.8391   -1.1895 C.2       1 <0>         0.5209
     11 O1         -0.0553   -4.2299   -2.2382 O.2       1 <0>        -0.5066
     12 C9         -0.1360   -6.3432   -1.1907 C.3       1 <0>        -0.1536
     13 C10        -0.2382   -6.8467   -2.6318 C.3       1 <0>         0.1531
     14 N2         -0.3297   -8.3088   -2.6330 N.am      1 <0>        -0.7463
     15 C11        -0.4288   -8.9769   -3.7993 C.2       1 <0>         0.7098
     16 O2         -0.4422   -8.3661   -4.8505 O.2       1 <0>        -0.5792
     17 N3         -0.5129  -10.3221   -3.8003 N.am      1 <0>        -0.7434
     18 C12        -0.6206  -11.0483   -5.0681 C.3       1 <0>         0.2324
     19 C13        -0.6997  -12.5281   -4.7942 C.2       1 <0>         0.1699
     20 N4          0.3076  -13.3524   -4.6994 N.2       1 <0>        -0.2613
     21 N5         -0.1256  -14.5392   -4.4604 N.2       1 <0>        -0.2775
     22 C14        -1.4306  -14.5252   -4.3937 C.2       1 <0>         0.1660
     23 N6         -1.8304  -13.2496   -4.5946 N.pl3     1 <0>        -0.4871
     24 C15        -3.2921  -13.1351   -4.5227 C.3       1 <0>         0.1000
     25 C16        -3.8283  -14.5755   -4.6734 C.3       1 <0>        -0.1298
     26 C17        -2.6346  -15.4147   -4.1711 C.3       1 <0>        -0.0427
     27 H1          0.8126    1.8879   -0.5052 H         1 <0>         0.0741
     28 H2         -0.9669    1.8491   -0.4857 H         1 <0>         0.0706
     29 H3         -0.0601    1.8586    1.0459 H         1 <0>         0.0690
     30 H4         -1.1055   -0.1637   -1.8354 H         1 <0>         0.1339
     31 H5         -1.0563   -2.6240   -1.8569 H         1 <0>         0.1553
     32 H6          1.0591   -0.1413    1.8398 H         1 <0>         0.1377
     33 H7          0.1487   -4.6600    0.8095 H         1 <0>         0.4140
     34 H8          0.7536   -6.7633   -0.7213 H         1 <0>         0.1074
     35 H9         -1.0208   -6.6523   -0.6342 H         1 <0>         0.1074
     36 H10        -1.1278   -6.4266   -3.1012 H         1 <0>         0.0792
     37 H11         0.6466   -6.5376   -3.1884 H         1 <0>         0.0801
     38 H12        -0.3190   -8.7961   -1.7943 H         1 <0>         0.3967
     39 H13        -0.5022  -10.8093   -2.9617 H         1 <0>         0.3985
     40 H14        -1.5192  -10.7278   -5.5952 H         1 <0>         0.0870
     41 H15         0.2551  -10.8387   -5.6824 H         1 <0>         0.1061
     42 H16        -3.5908  -12.7206   -3.5599 H         1 <0>         0.0976
     43 H17        -3.6615  -12.5086   -5.3346 H         1 <0>         0.0994
     44 H18        -4.7090  -14.7309   -4.0502 H         1 <0>         0.1083
     45 H19        -4.0458  -14.8034   -5.7169 H         1 <0>         0.0920
     46 H20        -2.5382  -16.3370   -4.7439 H         1 <0>         0.1075
     47 H21        -2.7554  -15.6344   -3.1103 H         1 <0>         0.1039
@<TRIPOS>BOND
     1    1    2 1
     2    1   27 1
     3    1   28 1
     4    1   29 1
     5    2    7 ar
     6    2    3 ar
     7    3    4 ar
     8    3   30 1
     9    4    5 ar
    10    4   31 1
    11    5    6 ar
    12    5    9 1
    13    6    7 ar
    14    6    8 1
    15    7   32 1
    16    9   10 am
    17    9   33 1
    18   10   11 2
    19   10   12 1
    20   12   13 1
    21   12   34 1
    22   12   35 1
    23   13   14 1
    24   13   36 1
    25   13   37 1
    26   14   15 am
    27   14   38 1
    28   15   16 2
    29   15   17 am
    30   17   18 1
    31   17   39 1
    32   18   19 1
    33   18   40 1
    34   18   41 1
    35   19   23 1
    36   19   20 2
    37   20   21 1
    38   21   22 2
    39   22   26 1
    40   22   23 1
    41   23   24 1
    42   24   25 1
    43   24   42 1
    44   24   43 1
    45   25   26 1
    46   25   44 1
    47   25   45 1
    48   26   46 1
    49   26   47 1
@<TRIPOS>MOLECULE
ZINC04422355
   46    49     0     0     0
SMALL
USER_CHARGES
(2Z)-6,8-dichloro-N-phenyl-2-[4-(trifluoromethyl)phenyl]imino-chromene-3-carboxamide
@<TRIPOS>ATOM
      1 C1          8.0800    8.7271    0.3976 C.ar      1 <0>        -0.1178
      2 C2          6.9403    9.0322    1.1189 C.ar      1 <0>        -0.0993
      3 C3          5.8167    8.2370    1.0066 C.ar      1 <0>        -0.1166
      4 C4          5.8324    7.1297    0.1684 C.ar      1 <0>         0.1261
      5 C5          6.9806    6.8228   -0.5503 C.ar      1 <0>        -0.1330
      6 C6          8.0991    7.6250   -0.4376 C.ar      1 <0>        -0.0969
      7 N1          4.6966    6.3222    0.0528 N.am      1 <0>        -0.6561
      8 C7          3.4685    6.8687    0.1503 C.2       1 <0>         0.5779
      9 O1          3.3454    8.0751    0.2452 O.2       1 <0>        -0.5186
     10 C8          2.2756    6.0054    0.1422 C.2       1 <0>        -0.2493
     11 C9          2.3810    4.6247    0.0358 C.2       1 <0>         0.1268
     12 C10         1.1364    3.8525    0.0386 C.ar      1 <0>        -0.1430
     13 C11         1.1558    2.4625    0.2067 C.ar      1 <0>        -0.0199
     14 C12        -0.0294    1.7607    0.2127 C.ar      1 <0>        -0.0322
     15 C13        -1.2387    2.4229    0.0474 C.ar      1 <0>        -0.0227
     16 C14        -1.2736    3.7939   -0.1155 C.ar      1 <0>        -0.0294
     17 C15        -0.0912    4.5206   -0.1264 C.ar      1 <0>         0.1314
     18 O2         -0.1095    5.8654   -0.2970 O.3       1 <0>        -0.1994
     19 C16         0.9153    6.5698    0.2472 C.2       1 <0>         0.5423
     20 N2          0.7029    7.7196    0.8500 N.pl3     1 <0>        -0.4864
     21 C17        -0.5461    8.2762    0.8404 C.ar      1 <0>         0.0459
     22 C18        -0.9497    9.0762   -0.2316 C.ar      1 <0>        -0.0796
     23 C19        -2.2127    9.6304   -0.2367 C.ar      1 <0>        -0.0539
     24 C20        -3.0754    9.4044    0.8213 C.ar      1 <0>        -0.1396
     25 C21        -2.6805    8.6174    1.8889 C.ar      1 <0>        -0.0550
     26 C22        -1.4225    8.0524    1.9052 C.ar      1 <0>        -0.0824
     27 C23        -4.4515   10.0187    0.8112 C.3       1 <0>         0.5054
     28 F1         -4.4050   11.2770    1.4208 F         1 <0>        -0.1657
     29 F2         -4.8910   10.1564   -0.5098 F         1 <0>        -0.1684
     30 F3         -5.3360    9.1928    1.5132 F         1 <0>        -0.1689
     31 Cl1        -2.7948    4.6067   -0.3134 Cl        1 <0>         0.0059
     32 Cl2        -0.0108    0.0373    0.4211 Cl        1 <0>        -0.0008
     33 H1          8.9573    9.3507    0.4869 H         1 <0>         0.1309
     34 H2          6.9288    9.8934    1.7705 H         1 <0>         0.1314
     35 H3          4.9270    8.4758    1.5703 H         1 <0>         0.1316
     36 H4          6.9974    5.9600   -1.1998 H         1 <0>         0.1298
     37 H5          8.9910    7.3891   -0.9990 H         1 <0>         0.1338
     38 H6          4.8055    5.2410   -0.1177 H         1 <0>         0.4369
     39 H7          3.3425    4.1396   -0.0455 H         1 <0>         0.1935
     40 H8          2.0948    1.9436    0.3312 H         1 <0>         0.1770
     41 H9         -2.1610    1.8610    0.0509 H         1 <0>         0.1795
     42 H10        -0.2760    9.2567   -1.0561 H         1 <0>         0.1529
     43 H11        -2.5276   10.2457   -1.0666 H         1 <0>         0.1600
     44 H12        -3.3590    8.4456    2.7114 H         1 <0>         0.1600
     45 H13        -1.1154    7.4387    2.7391 H         1 <0>         0.1520
     46 H14         1.5300    8.2333    1.3618 H         1 <0>         0.5041
@<TRIPOS>BOND
     1    1    6 ar
     2    1    2 ar
     3    1   33 1
     4    2    3 ar
     5    2   34 1
     6    3    4 ar
     7    3   35 1
     8    4    5 ar
     9    4    7 1
    10    5    6 ar
    11    5   36 1
    12    6   37 1
    13    7    8 am
    14    7   38 1
    15    8    9 2
    16    8   10 1
    17   10   19 1
    18   10   11 2
    19   11   12 1
    20   11   39 1
    21   12   17 ar
    22   12   13 ar
    23   13   14 ar
    24   13   40 1
    25   14   15 ar
    26   14   32 1
    27   15   16 ar
    28   15   41 1
    29   16   17 ar
    30   16   31 1
    31   17   18 1
    32   18   19 1
    33   19   20 2
    34   20   21 1
    35   20   46 1
    36   21   26 ar
    37   21   22 ar
    38   22   23 ar
    39   22   42 1
    40   23   24 ar
    41   23   43 1
    42   24   25 ar
    43   24   27 1
    44   25   26 ar
    45   25   44 1
    46   26   45 1
    47   27   28 1
    48   27   29 1
    49   27   30 1
@<TRIPOS>MOLECULE
ZINC38685217
   46    49     0     0     0
SMALL
USER_CHARGES

@<TRIPOS>ATOM
      1 C1          2.4141   -3.0580   -3.3094 C.ar      1 <0>        -0.0558
      2 C2          3.7164   -2.5943   -3.2710 C.ar      1 <0>        -0.1055
      3 C3          4.1886   -1.9445   -2.1458 C.ar      1 <0>        -0.0447
      4 C4          3.3597   -1.7569   -1.0557 C.ar      1 <0>        -0.1008
      5 C5          2.0519   -2.2215   -1.0921 C.ar      1 <0>         0.0955
      6 C6          1.5811   -2.8730   -2.2231 C.ar      1 <0>        -0.1769
      7 O1          1.2347   -2.0390   -0.0219 O.3       1 <0>        -0.1944
      8 C7          0.0098   -2.6062   -0.0557 C.2       1 <0>         0.2427
      9 C8         -1.1903   -1.9945   -0.1201 C.2       1 <0>        -0.0658
     10 N1         -2.1801   -2.8946   -0.1355 N.2       1 <0>         0.0081
     11 N2         -1.8134   -4.0708   -0.0892 N.pl3     1 <0>        -0.2823
     12 C9         -0.3413   -4.0840   -0.0367 C.3       1 <0>         0.0550
     13 H1          0.0735   -4.5906   -0.9081 H         1 <0>         0.2139
     14 C10         0.1389   -4.7304    1.2371 C.ar      1 <0>        -0.1915
     15 C11        -0.7487   -4.9629    2.2706 C.ar      1 <0>        -0.0459
     16 C12        -0.3115   -5.5553    3.4396 C.ar      1 <0>        -0.2023
     17 C13         1.0208   -5.9185    3.5788 C.ar      1 <0>         0.1934
     18 C14         1.9130   -5.6864    2.5437 C.ar      1 <0>        -0.1627
     19 C15         1.4706   -5.0968    1.3692 C.ar      1 <0>         0.1898
     20 O2          2.3417   -4.8735    0.3503 O.3       1 <0>        -0.4846
     21 O3          1.4503   -6.5008    4.7291 O.3       1 <0>        -0.2948
     22 C16         0.4763   -6.7092    5.7537 C.3       1 <0>         0.1018
     23 C17         1.1314   -7.3602    6.9446 C.ar      1 <0>        -0.1058
     24 C18         2.4826   -7.6509    6.9166 C.ar      1 <0>        -0.0559
     25 C19         3.0845   -8.2478    8.0079 C.ar      1 <0>        -0.1449
     26 C20         2.3340   -8.5550    9.1306 C.ar      1 <0>         0.1260
     27 C21         0.9812   -8.2635    9.1588 C.ar      1 <0>        -0.1420
     28 C22         0.3813   -7.6612    8.0674 C.ar      1 <0>        -0.0004
     29 Cl1        -1.3140   -7.2896    8.1041 Cl        1 <0>        -0.0480
     30 F1          2.9219   -9.1394   10.1974 F         1 <0>        -0.1241
     31 Br1         4.0063   -0.8690    0.4836 Br        1 <0>        -0.0024
     32 H2          2.0465   -3.5613   -4.1914 H         1 <0>         0.1494
     33 H3          4.3658   -2.7405   -4.1214 H         1 <0>         0.1525
     34 H4          5.2061   -1.5834   -2.1185 H         1 <0>         0.1587
     35 H5          0.5641   -3.2351   -2.2542 H         1 <0>         0.1274
     36 H6         -1.3329   -0.9246   -0.1546 H         1 <0>         0.2456
     37 H7         -1.7857   -4.6807    2.1643 H         1 <0>         0.1312
     38 H8         -1.0070   -5.7356    4.2459 H         1 <0>         0.1511
     39 H9          2.9501   -5.9683    2.6501 H         1 <0>         0.1598
     40 H10         2.7799   -4.0123    0.3891 H         1 <0>         0.3959
     41 H11         0.0514   -5.7507    6.0516 H         1 <0>         0.0904
     42 H12        -0.3156   -7.3560    5.3760 H         1 <0>         0.0908
     43 H13         3.0681   -7.4118    6.0412 H         1 <0>         0.1518
     44 H14         4.1401   -8.4750    7.9853 H         1 <0>         0.1496
     45 H15         0.3950   -8.5031   10.0337 H         1 <0>         0.1545
     46 H16        -2.3916   -4.8496   -0.0914 H         1 <0>         0.4966
@<TRIPOS>BOND
     1    1    6 ar
     2    1    2 ar
     3    1   32 1
     4    2    3 ar
     5    2   33 1
     6    3    4 ar
     7    3   34 1
     8    4    5 ar
     9    4   31 1
    10    5    6 ar
    11    5    7 1
    12    6   35 1
    13    7    8 1
    14    8   12 1
    15    8    9 2
    16    9   10 1
    17    9   36 1
    18   10   11 2
    19   11   12 1
    20   11   46 1
    21   12   13 1
    22   12   14 1
    23   14   19 ar
    24   14   15 ar
    25   15   16 ar
    26   15   37 1
    27   16   17 ar
    28   16   38 1
    29   17   18 ar
    30   17   21 1
    31   18   19 ar
    32   18   39 1
    33   19   20 1
    34   20   40 1
    35   21   22 1
    36   22   23 1
    37   22   41 1
    38   22   42 1
    39   23   28 ar
    40   23   24 ar
    41   24   25 ar
    42   24   43 1
    43   25   26 ar
    44   25   44 1
    45   26   27 ar
    46   26   30 1
    47   27   28 ar
    48   27   45 1
    49   28   29 1
@<TRIPOS>MOLECULE
ZINC63530674
   65    70     0     0     0
SMALL
USER_CHARGES

@<TRIPOS>ATOM
      1 C1         -0.1517    1.2149    1.2101 C.3       1 <0>        -0.1488
      2 C2         -0.1275   -0.2664    0.9342 C.ar      1 <0>         0.0922
      3 C3          0.0248   -0.7092   -0.3804 C.ar      1 <0>        -0.1216
      4 C4          0.0534   -2.0321   -0.6861 C.ar      1 <0>        -0.0318
      5 C5         -0.0731   -2.9914    0.3424 C.ar      1 <0>        -0.0760
      6 C6         -0.0797   -4.3825    0.3327 C.2       1 <0>        -0.0905
      7 C7         -0.2521   -4.8009    1.7761 C.3       1 <0>         0.0834
      8 H1          0.6063   -5.3884    2.1016 H         1 <0>         0.1811
      9 N1         -0.3363   -3.5584    2.5500 N.pl3     1 <0>        -0.5606
     10 C8         -0.2338   -2.5289    1.7293 C.ar      1 <0>         0.3335
     11 C9         -0.2489   -1.1323    1.9713 C.ar      1 <0>        -0.2122
     12 C10        -1.5190   -5.6009    1.9368 C.2       1 <0>         0.5262
     13 O1         -2.5203   -5.0707    2.3692 O.2       1 <0>        -0.4921
     14 N2         -1.5393   -6.9058    1.5999 N.am      1 <0>        -0.6948
     15 C11        -2.7709   -7.6836    1.7561 C.3       1 <0>         0.1510
     16 H2         -3.6309   -7.0493    1.5411 H         1 <0>         0.0984
     17 C12        -2.8670   -8.2036    3.1918 C.3       1 <0>        -0.1718
     18 C13        -2.7539   -8.8661    0.7854 C.3       1 <0>        -0.0596
     19 C14        -1.5467   -9.7563    1.0872 C.3       1 <0>        -0.1046
     20 C15        -1.5297  -10.9388    0.1165 C.3       1 <0>        -0.0849
     21 C16        -2.8160  -11.7511    0.2797 C.3       1 <0>        -0.1108
     22 C17        -4.0231  -10.8609   -0.0222 C.3       1 <0>        -0.0854
     23 C18        -4.0401   -9.6784    0.9486 C.3       1 <0>        -0.1022
     24 C19        -3.9270  -10.3408   -1.4578 C.3       1 <0>        -0.1114
     25 C20        -2.6407   -9.5285   -1.6210 C.3       1 <0>        -0.0851
     26 C21        -1.4336  -10.4188   -1.3192 C.3       1 <0>        -0.1087
     27 C22        -2.6577   -8.3460   -0.6503 C.3       1 <0>        -0.1030
     28 S1          0.0695   -5.3765   -0.9883 S.3       1 <0>         0.2099
     29 C23         1.6310   -6.1598   -0.7582 C.ar      1 <0>        -0.1524
     30 C24         2.4594   -5.7675    0.2861 C.ar      1 <0>        -0.1144
     31 C25         3.6822   -6.3835    0.4643 C.ar      1 <0>        -0.0881
     32 C26         4.0833   -7.3905   -0.3963 C.ar      1 <0>        -0.0161
     33 C27         3.2604   -7.7831   -1.4377 C.ar      1 <0>        -0.0837
     34 C28         2.0338   -7.1750   -1.6171 C.ar      1 <0>        -0.0586
     35 Cl1         5.6217   -8.1623   -0.1695 Cl        1 <0>        -0.0377
     36 H3          0.8636    1.5673    1.3922 H         1 <0>         0.1081
     37 H4         -0.5690    1.7380    0.3497 H         1 <0>         0.0962
     38 H5         -0.7672    1.4110    2.0881 H         1 <0>         0.0926
     39 H6          0.1219    0.0174   -1.1735 H         1 <0>         0.1646
     40 H7          0.1721   -2.3491   -1.7117 H         1 <0>         0.1688
     41 H8         -0.3607   -0.7586    2.9784 H         1 <0>         0.1661
     42 H9         -0.7384   -7.3299    1.2541 H         1 <0>         0.4051
     43 H10        -2.8791   -7.3612    3.8834 H         1 <0>         0.0600
     44 H11        -3.7833   -8.7823    3.3080 H         1 <0>         0.0815
     45 H12        -2.0070   -8.8379    3.4068 H         1 <0>         0.0663
     46 H13        -0.6304   -9.1776    0.9710 H         1 <0>         0.0526
     47 H14        -1.6152  -10.1268    2.1101 H         1 <0>         0.0720
     48 H15        -0.6697  -11.5731    0.3316 H         1 <0>         0.0726
     49 H16        -2.8038  -12.5936   -0.4119 H         1 <0>         0.0660
     50 H17        -2.8844  -12.1216    1.3025 H         1 <0>         0.0636
     51 H18        -4.9395  -11.4396    0.0941 H         1 <0>         0.0753
     52 H19        -4.1086  -10.0489    1.9714 H         1 <0>         0.0712
     53 H20        -4.9001   -9.0441    0.7335 H         1 <0>         0.0673
     54 H21        -3.9149  -11.1832   -2.1494 H         1 <0>         0.0658
     55 H22        -4.7870   -9.7066   -1.6729 H         1 <0>         0.0633
     56 H23        -2.5723   -9.1580   -2.6438 H         1 <0>         0.0723
     57 H24        -0.5172   -9.8401   -1.4354 H         1 <0>         0.0583
     58 H25        -1.4215  -11.2612   -2.0107 H         1 <0>         0.0663
     59 H26        -3.5177   -7.7118   -0.8653 H         1 <0>         0.0651
     60 H27        -1.7414   -7.7673   -0.7665 H         1 <0>         0.0600
     61 H28         2.1472   -4.9813    0.9576 H         1 <0>         0.1216
     62 H29         4.3265   -6.0789    1.2758 H         1 <0>         0.1467
     63 H30         3.5763   -8.5687   -2.1082 H         1 <0>         0.1535
     64 H31         1.3903   -7.4848   -2.4272 H         1 <0>         0.1501
     65 H32        -0.4495   -3.5016    3.5117 H         1 <0>         0.4580
@<TRIPOS>BOND
     1    1    2 1
     2    1   36 1
     3    1   37 1
     4    1   38 1
     5    2   11 ar
     6    2    3 ar
     7    3    4 ar
     8    3   39 1
     9    4    5 ar
    10    4   40 1
    11    5   10 ar
    12    5    6 2
    13    6    7 1
    14    6   28 1
    15    7    8 1
    16    7    9 1
    17    7   12 1
    18    9   10 2
    19    9   65 1
    20   10   11 ar
    21   11   41 1
    22   12   13 2
    23   12   14 am
    24   14   15 1
    25   14   42 1
    26   15   16 1
    27   15   17 1
    28   15   18 1
    29   17   43 1
    30   17   44 1
    31   17   45 1
    32   18   23 1
    33   18   27 1
    34   18   19 1
    35   19   20 1
    36   19   46 1
    37   19   47 1
    38   20   26 1
    39   20   21 1
    40   20   48 1
    41   21   22 1
    42   21   49 1
    43   21   50 1
    44   22   23 1
    45   22   24 1
    46   22   51 1
    47   23   52 1
    48   23   53 1
    49   24   25 1
    50   24   54 1
    51   24   55 1
    52   25   26 1
    53   25   27 1
    54   25   56 1
    55   26   57 1
    56   26   58 1
    57   27   59 1
    58   27   60 1
    59   28   29 1
    60   29   34 ar
    61   29   30 ar
    62   30   31 ar
    63   30   61 1
    64   31   32 ar
    65   31   62 1
    66   32   33 ar
    67   32   35 1
    68   33   34 ar
    69   33   63 1
    70   34   64 1
@<TRIPOS>MOLECULE
ZINC63572700
   57    61     0     0     0
SMALL
USER_CHARGES

@<TRIPOS>ATOM
      1 C1         -1.8149    1.0915   -1.1159 C.3       1 <0>        -0.1230
      2 C2         -1.5022   -0.3694   -0.9182 C.ar      1 <0>        -0.0644
      3 C3         -2.2601   -1.3314   -1.5594 C.ar      1 <0>        -0.1088
      4 C4         -1.9732   -2.6714   -1.3780 C.ar      1 <0>        -0.0924
      5 C5         -0.9282   -3.0495   -0.5559 C.ar      1 <0>        -0.0852
      6 C6         -0.1697   -2.0875    0.0845 C.ar      1 <0>        -0.0869
      7 C7         -0.4539   -0.7473   -0.1002 C.ar      1 <0>        -0.1089
      8 C8         -0.6161   -4.5104   -0.3574 C.3       1 <0>         0.2245
      9 H1         -1.1217   -5.1025   -1.1202 H         1 <0>         0.1082
     10 C9          0.8975   -4.7341   -0.4459 C.3       1 <0>         0.0696
     11 H2          1.4284   -4.0104    0.1725 H         1 <0>         0.1795
     12 C10         1.1567   -6.1527    0.0451 C.2       1 <0>         0.0743
     13 C11         1.8075   -6.7743   -0.9311 C.ar      1 <0>        -0.1555
     14 C12         2.3825   -8.1263   -1.0185 C.ar      1 <0>         0.0074
     15 C13         2.9835   -8.4474   -2.1957 C.ar      1 <0>        -0.0810
     16 C14         3.0685   -7.5679   -3.2810 C.ar      1 <0>         0.0511
     17 C15         2.5720   -6.3054   -3.2856 C.ar      1 <0>        -0.1815
     18 C16         1.9199   -5.8520   -2.1019 C.ar      1 <0>         0.3332
     19 N1          1.3760   -4.6793   -1.8284 N.pl3     1 <0>        -0.5687
     20 Cl1         3.6809  -10.0286   -2.3601 Cl        1 <0>        -0.0178
     21 C17         0.6473   -6.6564    1.3733 C.3       1 <0>        -0.1063
     22 C18        -0.8535   -6.3179    1.4291 C.3       1 <0>         0.1048
     23 N2         -1.0591   -4.9371    0.9791 N.am      1 <0>        -0.6287
     24 C19        -1.6581   -4.0503    1.7984 C.2       1 <0>         0.7018
     25 O1         -1.9628   -2.9488    1.3834 O.2       1 <0>        -0.5183
     26 N3         -1.9194   -4.3845    3.0776 N.am      1 <0>        -0.6667
     27 C20        -2.6278   -3.4999    3.9024 C.ar      1 <0>         0.1228
     28 C21        -2.6134   -2.1386    3.6365 C.ar      1 <0>        -0.0959
     29 C22        -3.3126   -1.2682    4.4511 C.ar      1 <0>        -0.1351
     30 C23        -4.0275   -1.7509    5.5318 C.ar      1 <0>        -0.0905
     31 C24        -4.0464   -3.1064    5.8031 C.ar      1 <0>        -0.1872
     32 C25        -3.3528   -3.9860    4.9878 C.ar      1 <0>         0.1003
     33 O2         -3.3750   -5.3201    5.2501 O.3       1 <0>        -0.3258
     34 C26        -4.1394   -5.7466    6.3796 C.3       1 <0>         0.0281
     35 H3         -1.2521    1.4714   -1.9686 H         1 <0>         0.0735
     36 H4         -2.8821    1.2127   -1.3018 H         1 <0>         0.0701
     37 H5         -1.5367    1.6470   -0.2204 H         1 <0>         0.0696
     38 H6         -3.0765   -1.0360   -2.2017 H         1 <0>         0.1241
     39 H7         -2.5658   -3.4230   -1.8784 H         1 <0>         0.1171
     40 H8          0.6465   -2.3828    0.7271 H         1 <0>         0.1067
     41 H9          0.1410    0.0044    0.3972 H         1 <0>         0.1222
     42 H10         2.3306   -8.8232   -0.1950 H         1 <0>         0.1800
     43 H11         3.5631   -7.9178   -4.1751 H         1 <0>         0.1682
     44 H12         2.6672   -5.6685   -4.1526 H         1 <0>         0.1793
     45 H13         0.7891   -7.7349    1.4423 H         1 <0>         0.1283
     46 H14         1.1726   -6.1573    2.1876 H         1 <0>         0.1299
     47 H15        -1.4040   -6.9973    0.7782 H         1 <0>         0.0970
     48 H16        -1.2124   -6.4240    2.4528 H         1 <0>         0.1131
     49 H17        -1.6172   -5.2372    3.4275 H         1 <0>         0.4076
     50 H18        -2.0556   -1.7589    2.7932 H         1 <0>         0.1618
     51 H19        -3.3004   -0.2085    4.2433 H         1 <0>         0.1286
     52 H20        -4.5721   -1.0671    6.1660 H         1 <0>         0.1290
     53 H21        -4.6057   -3.4801    6.6480 H         1 <0>         0.1345
     54 H22        -3.7472   -5.2773    7.2818 H         1 <0>         0.0590
     55 H23        -5.1815   -5.4575    6.2432 H         1 <0>         0.0587
     56 H24        -4.0726   -6.8303    6.4753 H         1 <0>         0.1031
     57 H25         1.2976   -3.9193   -2.4261 H         1 <0>         0.4614
@<TRIPOS>BOND
     1    1    2 1
     2    1   35 1
     3    1   36 1
     4    1   37 1
     5    2    7 ar
     6    2    3 ar
     7    3    4 ar
     8    3   38 1
     9    4    5 ar
    10    4   39 1
    11    5    6 ar
    12    5    8 1
    13    6    7 ar
    14    6   40 1
    15    7   41 1
    16    8    9 1
    17    8   23 1
    18    8   10 1
    19   10   11 1
    20   10   19 1
    21   10   12 1
    22   12   13 2
    23   12   21 1
    24   13   18 ar
    25   13   14 ar
    26   14   15 ar
    27   14   42 1
    28   15   16 ar
    29   15   20 1
    30   16   17 ar
    31   16   43 1
    32   17   18 ar
    33   17   44 1
    34   18   19 2
    35   19   57 1
    36   21   22 1
    37   21   45 1
    38   21   46 1
    39   22   23 1
    40   22   47 1
    41   22   48 1
    42   23   24 am
    43   24   25 2
    44   24   26 am
    45   26   27 1
    46   26   49 1
    47   27   32 ar
    48   27   28 ar
    49   28   29 ar
    50   28   50 1
    51   29   30 ar
    52   29   51 1
    53   30   31 ar
    54   30   52 1
    55   31   32 ar
    56   31   53 1
    57   32   33 1
    58   33   34 1
    59   34   54 1
    60   34   55 1
    61   34   56 1
@<TRIPOS>MOLECULE
ZINC63573484
   60    64     0     0     0
SMALL
USER_CHARGES

@<TRIPOS>ATOM
      1 C1         -1.6704    0.9563    1.8640 C.3       1 <0>        -0.1235
      2 C2         -1.3654   -0.4917    1.5787 C.ar      1 <0>        -0.0629
      3 C3         -1.6542   -1.4581    2.5239 C.ar      1 <0>        -0.1093
      4 C4         -1.3745   -2.7863    2.2621 C.ar      1 <0>        -0.0747
      5 C5         -0.8062   -3.1481    1.0550 C.ar      1 <0>        -0.0915
      6 C6         -0.5181   -2.1817    0.1095 C.ar      1 <0>        -0.0965
      7 C7         -0.8019   -0.8540    0.3695 C.ar      1 <0>        -0.1120
      8 C8         -0.5003   -4.5959    0.7701 C.3       1 <0>         0.2260
      9 H1         -0.4409   -4.7554   -0.3066 H         1 <0>         0.1085
     10 C9         -1.5970   -5.4849    1.3664 C.3       1 <0>         0.0692
     11 H2         -1.8017   -5.2004    2.3985 H         1 <0>         0.1798
     12 C10        -1.0820   -6.9170    1.2959 C.2       1 <0>         0.0471
     13 C11        -1.9907   -7.6096    0.6205 C.ar      1 <0>        -0.1183
     14 C12        -2.0894   -9.0393    0.2891 C.ar      1 <0>        -0.0824
     15 C13        -3.1706   -9.4231   -0.4442 C.ar      1 <0>         0.0989
     16 C14        -4.1694   -8.5437   -0.8873 C.ar      1 <0>        -0.0282
     17 C15        -4.1794   -7.2098   -0.6355 C.ar      1 <0>        -0.1515
     18 C16        -3.0618   -6.6752    0.1546 C.ar      1 <0>         0.3202
     19 N1         -2.8240   -5.4447    0.5682 N.pl3     1 <0>        -0.5614
     20 O1         -3.2890  -10.7381   -0.7666 O.3       1 <0>        -0.3034
     21 C17        -4.4318  -11.1170   -1.5365 C.3       1 <0>         0.0134
     22 C18         0.2593   -7.3240    1.8552 C.3       1 <0>        -0.0984
     23 C19         1.2942   -6.3360    1.2868 C.3       1 <0>         0.1037
     24 N2          0.7762   -4.9685    1.3998 N.am      1 <0>        -0.6271
     25 C20         1.4756   -4.0445    2.0879 C.2       1 <0>         0.7063
     26 O2          0.9815   -2.9587    2.3230 O.2       1 <0>        -0.5201
     27 N3          2.7228   -4.3241    2.5156 N.am      1 <0>        -0.6776
     28 C21         3.3974   -3.4205    3.3443 C.ar      1 <0>         0.1530
     29 C22         3.1409   -2.0592    3.2440 C.ar      1 <0>        -0.0918
     30 C23         3.8078   -1.1702    4.0635 C.ar      1 <0>        -0.0982
     31 C24         4.7308   -1.6340    4.9832 C.ar      1 <0>        -0.0822
     32 C25         4.9887   -2.9885    5.0853 C.ar      1 <0>        -0.1598
     33 C26         4.3203   -3.8834    4.2726 C.ar      1 <0>        -0.0977
     34 C27         5.9958   -3.4894    6.0881 C.3       1 <0>         0.5089
     35 F1          6.5317   -2.4057    6.7921 F         1 <0>        -0.1726
     36 F2          5.3682   -4.3625    6.9831 F         1 <0>        -0.1756
     37 F3          7.0226   -4.1652    5.4201 F         1 <0>        -0.1746
     38 H3         -2.6823    1.1869    1.5310 H         1 <0>         0.0739
     39 H4         -1.5896    1.1403    2.9353 H         1 <0>         0.0699
     40 H5         -0.9598    1.5890    1.3321 H         1 <0>         0.0702
     41 H6         -2.0982   -1.1755    3.4669 H         1 <0>         0.1221
     42 H7         -1.5995   -3.5413    3.0009 H         1 <0>         0.1072
     43 H8         -0.0739   -2.4643   -0.8335 H         1 <0>         0.1171
     44 H9         -0.5803   -0.0994   -0.3707 H         1 <0>         0.1243
     45 H10        -1.3416   -9.7490    0.6108 H         1 <0>         0.1739
     46 H11        -4.9830   -8.9544   -1.4668 H         1 <0>         0.1663
     47 H12        -4.9714   -6.5717   -0.9987 H         1 <0>         0.1785
     48 H13        -4.4041  -12.1904   -1.7237 H         1 <0>         0.1174
     49 H14        -5.3393  -10.8674   -0.9867 H         1 <0>         0.0647
     50 H15        -4.4236  -10.5822   -2.4862 H         1 <0>         0.0648
     51 H16         0.2437   -7.2626    2.9434 H         1 <0>         0.1256
     52 H17         0.5016   -8.3393    1.5414 H         1 <0>         0.1276
     53 H18         2.2242   -6.4201    1.8491 H         1 <0>         0.1097
     54 H19         1.4806   -6.5678    0.2382 H         1 <0>         0.0962
     55 H20         3.1528   -5.1517    2.2489 H         1 <0>         0.4080
     56 H21         2.4208   -1.6963    2.5255 H         1 <0>         0.1583
     57 H22         3.6088   -0.1115    3.9860 H         1 <0>         0.1407
     58 H23         5.2513   -0.9366    5.6228 H         1 <0>         0.1430
     59 H24         4.5189   -4.9418    4.3559 H         1 <0>         0.1363
     60 H25        -3.3530   -4.6537    0.3803 H         1 <0>         0.4604
@<TRIPOS>BOND
     1    1    2 1
     2    1   38 1
     3    1   39 1
     4    1   40 1
     5    2    7 ar
     6    2    3 ar
     7    3    4 ar
     8    3   41 1
     9    4    5 ar
    10    4   42 1
    11    5    6 ar
    12    5    8 1
    13    6    7 ar
    14    6   43 1
    15    7   44 1
    16    8    9 1
    17    8   24 1
    18    8   10 1
    19   10   11 1
    20   10   19 1
    21   10   12 1
    22   12   13 2
    23   12   22 1
    24   13   18 ar
    25   13   14 ar
    26   14   15 ar
    27   14   45 1
    28   15   16 ar
    29   15   20 1
    30   16   17 ar
    31   16   46 1
    32   17   18 ar
    33   17   47 1
    34   18   19 2
    35   19   60 1
    36   20   21 1
    37   21   48 1
    38   21   49 1
    39   21   50 1
    40   22   23 1
    41   22   51 1
    42   22   52 1
    43   23   24 1
    44   23   53 1
    45   23   54 1
    46   24   25 am
    47   25   26 2
    48   25   27 am
    49   27   28 1
    50   27   55 1
    51   28   33 ar
    52   28   29 ar
    53   29   30 ar
    54   29   56 1
    55   30   31 ar
    56   30   57 1
    57   31   32 ar
    58   31   58 1
    59   32   33 ar
    60   32   34 1
    61   33   59 1
    62   34   35 1
    63   34   36 1
    64   34   37 1
@<TRIPOS>MOLECULE
ZINC08742884
   70    75     0     0     0
SMALL
USER_CHARGES
2-(4-azaspiro[5.5]undecan-4-ylmethyl)spiro[6H-benzo[h]quinazoline-5,1'-cyclohexane]-4-ol
@<TRIPOS>ATOM
      1 C1         -0.6182    5.0661    8.4933 C.ar      1 <0>        -0.0804
      2 C2         -0.0775    4.9446    7.2256 C.ar      1 <0>        -0.1300
      3 C3         -0.1040    3.7261    6.5766 C.ar      1 <0>        -0.0630
      4 C4         -0.6839    2.6253    7.1974 C.ar      1 <0>        -0.0813
      5 C5         -1.1971    2.7427    8.4894 C.ar      1 <0>        -0.0397
      6 C6         -1.1741    3.9681    9.1243 C.ar      1 <0>        -0.1208
      7 C7         -1.7454    1.5327    9.1965 C.3       1 <0>        -0.0853
      8 C8         -2.4613    0.6087    8.2123 C.3       1 <0>        -0.0015
      9 C9         -2.8129   -0.7053    8.9161 C.3       1 <0>        -0.1363
     10 C10        -3.7096   -0.4128   10.1207 C.3       1 <0>        -0.1221
     11 C11        -4.9954    0.2675    9.6468 C.3       1 <0>        -0.1223
     12 C12        -4.6477    1.5775    8.9368 C.3       1 <0>        -0.1211
     13 C13        -3.7507    1.2828    7.7332 C.3       1 <0>        -0.1020
     14 C14        -1.5796    0.3219    7.0288 C.ar      1 <0>        -0.1505
     15 C15        -0.7411    1.3093    6.5218 C.ar      1 <0>         0.2523
     16 N1          0.0018    1.0455    5.4503 N.ar      1 <0>        -0.4986
     17 C16        -0.0533   -0.1400    4.8768 C.ar      1 <0>         0.2786
     18 N2         -0.8247   -1.1052    5.3364 N.ar      1 <0>        -0.5254
     19 C17        -1.5987   -0.9177    6.4023 C.ar      1 <0>         0.3776
     20 O1         -2.3896   -1.9155    6.8670 O.3       1 <0>        -0.4588
     21 C18         0.7970   -0.4023    3.6606 C.3       1 <0>         0.0794
     22 C19        -1.3245   -0.5859    2.5091 C.3       1 <0>         0.0005
     23 C20        -2.1240   -0.0818    1.3055 C.3       1 <0>        -0.1466
     24 C21        -1.4342   -0.5337    0.0152 C.3       1 <0>        -0.1258
     25 C22         0.0021   -0.0041    0.0020 C.3       1 <0>        -0.0720
     26 C23         0.7401   -0.5113    1.2428 C.3       1 <0>         0.0008
     27 C24        -0.0187    1.5256    0.0104 C.3       1 <0>        -0.1272
     28 C25         1.4170    2.0547   -0.0004 C.3       1 <0>        -0.1281
     29 C26         2.1328    1.5605   -1.2590 C.3       1 <0>        -0.1258
     30 C27         2.1532    0.0307   -1.2674 C.3       1 <0>        -0.1280
     31 C28         0.7176   -0.4987   -1.2561 C.3       1 <0>        -0.1072
     32 H1         -0.6064    6.0237    8.9927 H         1 <0>         0.1334
     33 H2          0.3653    5.8035    6.7432 H         1 <0>         0.1331
     34 H3          0.3240    3.6285    5.5898 H         1 <0>         0.1320
     35 H4         -1.5908    4.0696   10.1155 H         1 <0>         0.1342
     36 H5         -0.9256    0.9899    9.6670 H         1 <0>         0.0854
     37 H6         -2.4500    1.8540    9.9637 H         1 <0>         0.1023
     38 H7         -3.3392   -1.3601    8.2216 H         1 <0>         0.1099
     39 H8         -1.8984   -1.1929    9.2536 H         1 <0>         0.0594
     40 H9         -3.1845    0.2450   10.8132 H         1 <0>         0.0648
     41 H10        -3.9574   -1.3472   10.6244 H         1 <0>         0.0696
     42 H11        -5.6329    0.4778   10.5055 H         1 <0>         0.0674
     43 H12        -5.5218   -0.3913    8.9562 H         1 <0>         0.0646
     44 H13        -4.1232    2.2372    9.6280 H         1 <0>         0.0683
     45 H14        -5.5638    2.0611    8.5976 H         1 <0>         0.0689
     46 H15        -3.5061    2.2156    7.2250 H         1 <0>         0.0630
     47 H16        -4.2734    0.6194    7.0441 H         1 <0>         0.0667
     48 H17        -1.9636   -2.4804    7.5261 H         1 <0>         0.4172
     49 H18         1.0674   -1.4577    3.6270 H         1 <0>         0.1561
     50 H19         1.7020    0.2030    3.7125 H         1 <0>         0.1531
     51 H20        -1.2895   -1.6752    2.4912 H         1 <0>         0.1374
     52 H21        -1.8052   -0.2531    3.4291 H         1 <0>         0.1145
     53 H22        -3.1333   -0.4919    1.3415 H         1 <0>         0.1119
     54 H23        -2.1724    1.0068    1.3309 H         1 <0>         0.0864
     55 H24        -1.9757   -0.1396   -0.8447 H         1 <0>         0.0951
     56 H25        -1.4213   -1.6227   -0.0289 H         1 <0>         0.0848
     57 H26         0.7653   -1.6009    1.2304 H         1 <0>         0.1354
     58 H27         1.7591   -0.1243    1.2428 H         1 <0>         0.1354
     59 H28        -0.5458    1.8867   -0.8727 H         1 <0>         0.0925
     60 H29        -0.5288    1.8771    0.9073 H         1 <0>         0.0567
     61 H30         1.4025    3.1446    0.0051 H         1 <0>         0.0773
     62 H31         1.9440    1.6937    0.8828 H         1 <0>         0.0567
     63 H32         3.1555    1.9375   -1.2669 H         1 <0>         0.0714
     64 H33         1.6057    1.9217   -2.1421 H         1 <0>         0.0710
     65 H34         2.6806   -0.3305   -0.3846 H         1 <0>         0.0618
     66 H35         2.6631   -0.3209   -2.1644 H         1 <0>         0.0766
     67 H36         0.7322   -1.5886   -1.2612 H         1 <0>         0.0759
     68 H37         0.1904   -0.1382   -2.1394 H         1 <0>         0.0845
     69 N3          0.0407   -0.0216    2.4497 N.4       1 <0>        -0.3910
     70 H38        -0.0237    1.0021    2.4050 H         1 <0>         0.4270
@<TRIPOS>BOND
     1    1    6 ar
     2    1    2 ar
     3    1   32 1
     4    2    3 ar
     5    2   33 1
     6    3    4 ar
     7    3   34 1
     8    4   15 1
     9    4    5 ar
    10    5    6 ar
    11    5    7 1
    12    6   35 1
    13    7    8 1
    14    7   36 1
    15    7   37 1
    16    8   13 1
    17    8    9 1
    18    8   14 1
    19    9   10 1
    20    9   38 1
    21    9   39 1
    22   10   11 1
    23   10   40 1
    24   10   41 1
    25   11   12 1
    26   11   42 1
    27   11   43 1
    28   12   13 1
    29   12   44 1
    30   12   45 1
    31   13   46 1
    32   13   47 1
    33   14   19 ar
    34   14   15 ar
    35   15   16 ar
    36   16   17 ar
    37   17   18 ar
    38   17   21 1
    39   18   19 ar
    40   19   20 1
    41   20   48 1
    42   21   49 1
    43   21   50 1
    44   21   69 1
    45   22   23 1
    46   22   51 1
    47   22   52 1
    48   22   69 1
    49   23   24 1
    50   23   53 1
    51   23   54 1
    52   24   25 1
    53   24   55 1
    54   24   56 1
    55   25   31 1
    56   25   26 1
    57   25   27 1
    58   26   57 1
    59   26   58 1
    60   26   69 1
    61   27   28 1
    62   27   59 1
    63   27   60 1
    64   28   29 1
    65   28   61 1
    66   28   62 1
    67   29   30 1
    68   29   63 1
    69   29   64 1
    70   30   31 1
    71   30   65 1
    72   30   66 1
    73   31   67 1
    74   31   68 1
    75   69   70 1
@<TRIPOS>MOLECULE
ZINC35792421
   56    59     0     0     0
SMALL
USER_CHARGES

@<TRIPOS>ATOM
      1 C1         -0.7637    2.6985    0.9506 C.3       1 <0>        -0.1474
      2 C2         -0.4856    1.1941    0.9391 C.3       1 <0>        -0.0677
      3 C3          0.1630    0.7852    2.2632 C.3       1 <0>        -0.1486
      4 C4         -1.7812    0.4451    0.7620 C.ar      1 <0>        -0.0339
      5 C5         -2.7979    0.5944    1.6866 C.ar      1 <0>        -0.1084
      6 C6         -3.9863   -0.0927    1.5241 C.ar      1 <0>        -0.0895
      7 C7         -4.1583   -0.9287    0.4368 C.ar      1 <0>        -0.1655
      8 C8         -3.1419   -1.0773   -0.4883 C.ar      1 <0>        -0.0932
      9 C9         -1.9551   -0.3870   -0.3281 C.ar      1 <0>        -0.1133
     10 C10        -5.4535   -1.6785    0.2602 C.3       1 <0>         0.0316
     11 N1         -6.3869   -0.8642   -0.5296 N.4       1 <0>        -0.3871
     12 C11        -5.8304   -0.6466   -1.8669 C.3       1 <0>        -0.0180
     13 C12        -6.7374    0.2520   -2.6983 C.3       1 <0>        -0.1594
     14 C13        -7.4158    1.2834   -1.7923 C.3       1 <0>         0.0832
     15 N2         -8.6627    0.7122   -1.2704 N.pl3     1 <0>        -0.4560
     16 C14        -9.8766    1.3275   -1.2239 C.2       1 <0>         0.0324
     17 C15       -10.7586    0.4777   -0.6584 C.2       1 <0>        -0.1941
     18 C16       -10.0634   -0.7086   -0.3495 C.2       1 <0>        -0.1143
     19 C17        -8.7853   -0.5407   -0.7406 C.2       1 <0>        -0.0636
     20 C18        -7.6774   -1.5597   -0.6281 C.3       1 <0>         0.1763
     21 H1         -7.6799   -2.1989   -1.5111 H         1 <0>         0.1548
     22 C19        -7.8909   -2.4011    0.6037 C.ar      1 <0>        -0.1523
     23 C20        -7.8333   -1.8203    1.8561 C.ar      1 <0>        -0.0851
     24 C21        -8.0292   -2.5923    2.9872 C.ar      1 <0>        -0.0389
     25 C22        -8.2831   -3.9474    2.8669 C.ar      1 <0>        -0.0621
     26 C23        -8.3415   -4.5316    1.6167 C.ar      1 <0>        -0.1200
     27 C24        -8.1510   -3.7580    0.4808 C.ar      1 <0>         0.1494
     28 O1         -8.2140   -4.3300   -0.7506 O.3       1 <0>        -0.4851
     29 Cl1        -7.9558   -1.8604    4.5597 Cl        1 <0>        -0.0368
     30 H2          0.1734    3.2403    1.0788 H         1 <0>         0.0676
     31 H3         -1.2257    2.9898    0.0074 H         1 <0>         0.0565
     32 H4         -1.4369    2.9373    1.7740 H         1 <0>         0.0584
     33 H5          0.1876    0.9553    0.1158 H         1 <0>         0.0853
     34 H6          0.3611   -0.2866    2.2550 H         1 <0>         0.0586
     35 H7          1.1001    1.3270    2.3913 H         1 <0>         0.0675
     36 H8         -0.5102    1.0239    3.0865 H         1 <0>         0.0588
     37 H9         -2.6635    1.2476    2.5362 H         1 <0>         0.1353
     38 H10        -4.7804    0.0235    2.2469 H         1 <0>         0.1288
     39 H11        -3.2761   -1.7308   -1.3377 H         1 <0>         0.1309
     40 H12        -1.1624   -0.5002   -1.0529 H         1 <0>         0.1355
     41 H13        -5.2619   -2.6176   -0.2589 H         1 <0>         0.1347
     42 H14        -5.8895   -1.8859    1.2374 H         1 <0>         0.1443
     43 H15        -4.8503   -0.1785   -1.7747 H         1 <0>         0.1394
     44 H16        -5.7209   -1.6076   -2.3695 H         1 <0>         0.1359
     45 H17        -6.1436    0.7675   -3.4532 H         1 <0>         0.1297
     46 H18        -7.4980   -0.3553   -3.1891 H         1 <0>         0.1053
     47 H19        -6.7534    1.5324   -0.9632 H         1 <0>         0.0814
     48 H20        -7.6386    2.1828   -2.3662 H         1 <0>         0.1253
     49 H21       -10.0954    2.3240   -1.5781 H         1 <0>         0.1765
     50 H22       -11.8052    0.6712   -0.4754 H         1 <0>         0.1506
     51 H23       -10.4789   -1.5902    0.1157 H         1 <0>         0.1438
     52 H24        -7.6349   -0.7631    1.9520 H         1 <0>         0.1376
     53 H25        -8.4354   -4.5485    3.7511 H         1 <0>         0.1531
     54 H26        -8.5393   -5.5892    1.5232 H         1 <0>         0.1553
     55 H27        -7.3659   -4.6646   -1.0727 H         1 <0>         0.3990
     56 H28        -6.5207    0.0268   -0.0754 H         1 <0>         0.4177
@<TRIPOS>BOND
     1    1    2 1
     2    1   30 1
     3    1   31 1
     4    1   32 1
     5    2    3 1
     6    2    4 1
     7    2   33 1
     8    3   34 1
     9    3   35 1
    10    3   36 1
    11    4    9 ar
    12    4    5 ar
    13    5    6 ar
    14    5   37 1
    15    6    7 ar
    16    6   38 1
    17    7    8 ar
    18    7   10 1
    19    8    9 ar
    20    8   39 1
    21    9   40 1
    22   10   11 1
    23   10   41 1
    24   10   42 1
    25   11   20 1
    26   11   12 1
    27   11   56 1
    28   12   13 1
    29   12   43 1
    30   12   44 1
    31   13   14 1
    32   13   45 1
    33   13   46 1
    34   14   15 1
    35   14   47 1
    36   14   48 1
    37   15   19 1
    38   15   16 1
    39   16   17 2
    40   16   49 1
    41   17   18 1
    42   17   50 1
    43   18   19 2
    44   18   51 1
    45   19   20 1
    46   20   21 1
    47   20   22 1
    48   22   27 ar
    49   22   23 ar
    50   23   24 ar
    51   23   52 1
    52   24   25 ar
    53   24   29 1
    54   25   26 ar
    55   25   53 1
    56   26   27 ar
    57   26   54 1
    58   27   28 1
    59   28   55 1
@<TRIPOS>MOLECULE
ZINC05458499
   48    52     0     0     0
SMALL
USER_CHARGES

@<TRIPOS>ATOM
      1 C1         -0.0184    1.5028    0.0103 C.3       1 <0>        -0.1242
      2 C2          0.0021   -0.0041    0.0020 C.ar      1 <0>        -0.0731
      3 C3          0.0057   -0.6888   -1.1991 C.ar      1 <0>        -0.0944
      4 C4          0.0245   -2.0707   -1.2067 C.ar      1 <0>        -0.1074
      5 C5          0.0400   -2.7685   -0.0132 C.ar      1 <0>        -0.1007
      6 C6          0.0373   -2.0840    1.1875 C.ar      1 <0>        -0.1248
      7 C7          0.0229   -0.7015    1.1951 C.ar      1 <0>        -0.0974
      8 C8          0.0538   -2.8445    2.4885 C.3       1 <0>         0.1863
      9 H1          0.0489   -2.1420    3.3219 H         1 <0>         0.1240
     10 C9         -1.1823   -3.7471    2.5709 C.3       1 <0>        -0.1470
     11 C10        -1.0417   -4.7097    3.7552 C.3       1 <0>         0.1883
     12 H2         -1.9430   -5.3163    3.8428 H         1 <0>         0.1447
     13 N1          0.1218   -5.5834    3.5149 N.pl3     1 <0>        -0.6777
     14 C11         1.2686   -4.9666    3.0380 C.cat     1 <0>         0.6227
     15 N2          1.2584   -3.6767    2.5551 N.pl3     1 <0>        -0.4587
     16 C12         2.5375   -3.3752    2.1776 C.ar      1 <0>         0.0975
     17 C13         3.1169   -2.2363    1.6320 C.ar      1 <0>        -0.0798
     18 C14         4.4766   -2.2843    1.3688 C.ar      1 <0>        -0.0777
     19 C15         5.2357   -3.4112    1.6325 C.ar      1 <0>        -0.0897
     20 C16         4.6826   -4.5571    2.1754 C.ar      1 <0>        -0.0724
     21 C17         3.3109   -4.5310    2.4502 C.ar      1 <0>         0.0490
     22 N3          2.4764   -5.4609    2.9683 N.pl3     1 <0>        -0.5249
     23 C18        -0.8354   -3.9238    5.0244 C.ar      1 <0>        -0.1149
     24 C19         0.4144   -3.4169    5.3279 C.ar      1 <0>        -0.1200
     25 C20         0.6040   -2.6956    6.4916 C.ar      1 <0>        -0.0817
     26 C21        -0.4571   -2.4810    7.3526 C.ar      1 <0>        -0.0773
     27 C22        -1.7075   -2.9884    7.0486 C.ar      1 <0>        -0.0785
     28 C23        -1.8973   -3.7050    5.8820 C.ar      1 <0>        -0.0865
     29 Br1        -0.1983   -1.4948    8.9452 Br        1 <0>        -0.0245
     30 H3          1.0042    1.8801    0.0026 H         1 <0>         0.0780
     31 H4         -0.5455    1.8639   -0.8728 H         1 <0>         0.0745
     32 H5         -0.5286    1.8543    0.9071 H         1 <0>         0.0719
     33 H6         -0.0064   -0.1437   -2.1314 H         1 <0>         0.1327
     34 H7          0.0266   -2.6056   -2.1449 H         1 <0>         0.1312
     35 H8          0.0540   -3.8484   -0.0191 H         1 <0>         0.1162
     36 H9          0.0246   -0.1666    2.1333 H         1 <0>         0.1295
     37 H10        -2.0719   -3.1321    2.7072 H         1 <0>         0.1319
     38 H11        -1.2758   -4.3191    1.6478 H         1 <0>         0.1044
     39 H12         0.0869   -6.5383    3.6818 H         1 <0>         0.4442
     40 H13         2.5332   -1.3521    1.4226 H         1 <0>         0.1520
     41 H14         4.9587   -1.4159    0.9447 H         1 <0>         0.1483
     42 H15         6.2918   -3.3956    1.4073 H         1 <0>         0.1499
     43 H16         5.2823   -5.4322    2.3775 H         1 <0>         0.1567
     44 H17         1.2429   -3.5849    4.6557 H         1 <0>         0.1146
     45 H18         1.5805   -2.3000    6.7288 H         1 <0>         0.1380
     46 H19        -2.5363   -2.8210    7.7205 H         1 <0>         0.1454
     47 H20        -2.8745   -4.0977    5.6425 H         1 <0>         0.1439
     48 H21         2.7342   -6.3531    3.2481 H         1 <0>         0.4572
@<TRIPOS>BOND
     1    1    2 1
     2    1   30 1
     3    1   31 1
     4    1   32 1
     5    2    7 ar
     6    2    3 ar
     7    3    4 ar
     8    3   33 1
     9    4    5 ar
    10    4   34 1
    11    5    6 ar
    12    5   35 1
    13    6    7 ar
    14    6    8 1
    15    7   36 1
    16    8    9 1
    17    8   15 1
    18    8   10 1
    19   10   11 1
    20   10   37 1
    21   10   38 1
    22   11   12 1
    23   11   13 1
    24   11   23 1
    25   13   14 1
    26   13   39 1
    27   14   22 2
    28   14   15 1
    29   15   16 1
    30   16   21 ar
    31   16   17 ar
    32   17   18 ar
    33   17   40 1
    34   18   19 ar
    35   18   41 1
    36   19   20 ar
    37   19   42 1
    38   20   21 ar
    39   20   43 1
    40   21   22 1
    41   22   48 1
    42   23   28 ar
    43   23   24 ar
    44   24   25 ar
    45   24   44 1
    46   25   26 ar
    47   25   45 1
    48   26   27 ar
    49   26   29 1
    50   27   28 ar
    51   27   46 1
    52   28   47 1
@<TRIPOS>MOLECULE
ZINC63503406
   64    68     0     0     0
SMALL
USER_CHARGES

@<TRIPOS>ATOM
      1 C1         -0.0184    1.5028    0.0103 C.3       1 <0>        -0.1193
      2 C2          0.0021   -0.0041    0.0020 C.ar      1 <0>        -0.0479
      3 C3          0.0057   -0.6883   -1.1997 C.ar      1 <0>        -0.1494
      4 C4          0.0244   -2.0706   -1.2107 C.ar      1 <0>        -0.0781
      5 C5          0.0391   -2.7719   -0.0203 C.ar      1 <0>        -0.2089
      6 C6          0.0355   -2.0879    1.1864 C.ar      1 <0>         0.1287
      7 C7          0.0229   -0.7004    1.1947 C.ar      1 <0>        -0.1210
      8 C8          0.0256    0.0460    2.5038 C.3       1 <0>        -0.1031
      9 O1          0.0500   -2.7755    2.3585 O.3       1 <0>        -0.3160
     10 C9          0.0686   -4.2018    2.2738 C.3       1 <0>         0.1097
     11 C10         0.0826   -4.7874    3.6623 C.ar      1 <0>        -0.1140
     12 C11         0.0709   -3.9540    4.7643 C.ar      1 <0>        -0.0508
     13 C12         0.0843   -4.4906    6.0383 C.ar      1 <0>        -0.1505
     14 C13         0.1091   -5.8621    6.2133 C.ar      1 <0>        -0.0544
     15 C14         0.1205   -6.6995    5.1149 C.ar      1 <0>        -0.1985
     16 C15         0.1017   -6.1636    3.8352 C.ar      1 <0>         0.1563
     17 O2          0.1072   -6.9855    2.7529 O.3       1 <0>        -0.3109
     18 C16         0.1271   -8.3917    3.0063 C.3       1 <0>         0.0230
     19 C17         0.0724   -3.5792    7.2385 C.3       1 <0>         0.1595
     20 H1          0.4053   -2.5832    6.9466 H         1 <0>         0.1140
     21 C18        -1.3439   -3.5019    7.8133 C.3       1 <0>         0.0506
     22 H2         -1.7311   -4.5018    8.0089 H         1 <0>         0.1713
     23 C19        -1.2347   -2.7073    9.1099 C.2       1 <0>         0.0406
     24 C20        -2.1062   -1.7136    9.0156 C.ar      1 <0>        -0.1205
     25 C21        -2.5198   -0.6725    9.9690 C.ar      1 <0>        -0.0812
     26 C22        -3.4500    0.2209    9.5329 C.ar      1 <0>         0.0969
     27 C23        -4.0191    0.1977    8.2513 C.ar      1 <0>        -0.0308
     28 C24        -3.7158   -0.7195    7.2976 C.ar      1 <0>        -0.1522
     29 C25        -2.7236   -1.7432    7.6528 C.ar      1 <0>         0.3147
     30 N1         -2.2611   -2.7578    6.9509 N.pl3     1 <0>        -0.5595
     31 O3         -3.8519    1.1944   10.3921 O.3       1 <0>        -0.3043
     32 C26        -4.8288    2.1204    9.9123 C.3       1 <0>         0.0139
     33 C27        -0.2089   -3.0488   10.1634 C.3       1 <0>        -0.1222
     34 C28         1.1300   -3.2146    9.4215 C.3       1 <0>         0.0562
     35 N2          0.9656   -4.1159    8.2775 N.3       1 <0>        -0.6631
     36 H3          1.0042    1.8801    0.0026 H         1 <0>         0.0759
     37 H4         -0.5455    1.8639   -0.8728 H         1 <0>         0.0718
     38 H5         -0.5286    1.8543    0.9071 H         1 <0>         0.0694
     39 H6         -0.0065   -0.1419   -2.1312 H         1 <0>         0.1267
     40 H7          0.0272   -2.6027   -2.1505 H         1 <0>         0.1277
     41 H8          0.0530   -3.8518   -0.0294 H         1 <0>         0.1280
     42 H9         -1.0013    0.2123    2.8294 H         1 <0>         0.0625
     43 H10         0.5545   -0.5403    3.2552 H         1 <0>         0.0642
     44 H11         0.5255    1.0058    2.3738 H         1 <0>         0.0693
     45 H12        -0.8194   -4.5459    1.7434 H         1 <0>         0.0797
     46 H13         0.9604   -4.5222    1.7353 H         1 <0>         0.0814
     47 H14         0.0515   -2.8825    4.6303 H         1 <0>         0.1390
     48 H15         0.1199   -6.2788    7.2096 H         1 <0>         0.1283
     49 H16         0.1399   -7.7706    5.2520 H         1 <0>         0.1406
     50 H17        -0.7564   -8.6699    3.5808 H         1 <0>         0.0606
     51 H18         0.1296   -8.9315    2.0593 H         1 <0>         0.1093
     52 H19         1.0234   -8.6463    3.5719 H         1 <0>         0.0626
     53 H20        -2.1065   -0.6197   10.9653 H         1 <0>         0.1722
     54 H21        -4.7459    0.9585    8.0074 H         1 <0>         0.1650
     55 H22        -4.1819   -0.6978    6.3236 H         1 <0>         0.1767
     56 H23        -4.4362    2.6433    9.0402 H         1 <0>         0.0644
     57 H24        -5.7350    1.5817    9.6355 H         1 <0>         0.0640
     58 H25        -5.0602    2.8426   10.6953 H         1 <0>         0.1167
     59 H26        -0.1363   -2.2407   10.8913 H         1 <0>         0.1188
     60 H27        -0.4791   -3.9799   10.6614 H         1 <0>         0.1212
     61 H28         1.4703   -2.2413    9.0680 H         1 <0>         0.0933
     62 H29         1.8723   -3.6287   10.1039 H         1 <0>         0.1167
     63 H30         0.6620   -5.0298    8.5786 H         1 <0>         0.3579
     64 H31        -2.4783   -2.9757    6.0310 H         1 <0>         0.4575
@<TRIPOS>BOND
     1    1    2 1
     2    1   36 1
     3    1   37 1
     4    1   38 1
     5    2    7 ar
     6    2    3 ar
     7    3    4 ar
     8    3   39 1
     9    4    5 ar
    10    4   40 1
    11    5    6 ar
    12    5   41 1
    13    6    7 ar
    14    6    9 1
    15    7    8 1
    16    8   42 1
    17    8   43 1
    18    8   44 1
    19    9   10 1
    20   10   11 1
    21   10   45 1
    22   10   46 1
    23   11   16 ar
    24   11   12 ar
    25   12   13 ar
    26   12   47 1
    27   13   14 ar
    28   13   19 1
    29   14   15 ar
    30   14   48 1
    31   15   16 ar
    32   15   49 1
    33   16   17 1
    34   17   18 1
    35   18   50 1
    36   18   51 1
    37   18   52 1
    38   19   20 1
    39   19   35 1
    40   19   21 1
    41   21   22 1
    42   21   30 1
    43   21   23 1
    44   23   24 2
    45   23   33 1
    46   24   29 ar
    47   24   25 ar
    48   25   26 ar
    49   25   53 1
    50   26   27 ar
    51   26   31 1
    52   27   28 ar
    53   27   54 1
    54   28   29 ar
    55   28   55 1
    56   29   30 2
    57   30   64 1
    58   31   32 1
    59   32   56 1
    60   32   57 1
    61   32   58 1
    62   33   34 1
    63   33   59 1
    64   33   60 1
    65   34   35 1
    66   34   61 1
    67   34   62 1
    68   35   63 1
@<TRIPOS>MOLECULE
ZINC63572907
   60    64     0     0     0
SMALL
USER_CHARGES

@<TRIPOS>ATOM
      1 C1          0.9954    1.9287    2.1074 C.3       1 <0>        -0.1268
      2 C2          0.8956    0.5126    1.6016 C.ar      1 <0>        -0.0574
      3 C3          1.3933    0.1878    0.3535 C.ar      1 <0>        -0.1120
      4 C4          1.3017   -1.1111   -0.1105 C.ar      1 <0>        -0.0843
      5 C5          0.7128   -2.0853    0.6737 C.ar      1 <0>        -0.1406
      6 C6          0.2159   -1.7607    1.9222 C.ar      1 <0>        -0.1235
      7 C7          0.3114   -0.4627    2.3879 C.ar      1 <0>        -0.1143
      8 C8          0.6121   -3.5012    0.1675 C.3       1 <0>         0.2169
      9 H1          1.0596   -3.5710   -0.8240 H         1 <0>         0.1455
     10 C9         -0.8590   -3.9258    0.1037 C.3       1 <0>         0.0777
     11 H2         -0.9631   -4.8664   -0.4371 H         1 <0>         0.1823
     12 C10        -1.3300   -4.0796    1.5442 C.2       1 <0>         0.0763
     13 C11        -2.3873   -3.2878    1.6796 C.ar      1 <0>        -0.1585
     14 C12        -3.3036   -3.0628    2.8090 C.ar      1 <0>         0.0046
     15 C13        -4.2949   -2.1540    2.6051 C.ar      1 <0>        -0.0788
     16 C14        -4.4628   -1.4553    1.4041 C.ar      1 <0>         0.0481
     17 C15        -3.6695   -1.6033    0.3136 C.ar      1 <0>        -0.1799
     18 C16        -2.5949   -2.5354    0.4049 C.ar      1 <0>         0.3394
     19 N1         -1.6991   -2.8896   -0.4995 N.pl3     1 <0>        -0.5674
     20 Cl1        -5.4083   -1.8448    3.9006 Cl        1 <0>        -0.0194
     21 C17        -0.5990   -4.9361    2.5488 C.3       1 <0>        -0.1082
     22 C18         0.8816   -4.5178    2.4932 C.3       1 <0>         0.0930
     23 N2          1.3059   -4.4112    1.0922 N.am      1 <0>        -0.6203
     24 C19         2.3391   -5.1540    0.6479 C.2       1 <0>         0.7124
     25 O1          2.7543   -5.0021   -0.4848 O.2       1 <0>        -0.5534
     26 N3          2.9119   -6.0651    1.4591 N.am      1 <0>        -0.6640
     27 C20         4.0454   -6.7701    1.0312 C.ar      1 <0>         0.1231
     28 C21         4.2511   -7.0013   -0.3209 C.ar      1 <0>        -0.0921
     29 C22         5.3693   -7.6968   -0.7404 C.ar      1 <0>        -0.1002
     30 C23         6.2849   -8.1634    0.1848 C.ar      1 <0>        -0.0893
     31 C24         6.0864   -7.9367    1.5340 C.ar      1 <0>        -0.1825
     32 C25         4.9709   -7.2355    1.9623 C.ar      1 <0>         0.0978
     33 O2          4.7773   -7.0069    3.2887 O.3       1 <0>        -0.3252
     34 C26         5.7677   -7.5134    4.1857 C.3       1 <0>         0.0280
     35 C27         5.5911   -7.9475   -2.2098 C.3       1 <0>        -0.1118
     36 H3          1.9348    2.0570    2.6451 H         1 <0>         0.0806
     37 H4          0.9621    2.6188    1.2644 H         1 <0>         0.0738
     38 H5          0.1615    2.1344    2.7785 H         1 <0>         0.0724
     39 H6          1.8534    0.9489   -0.2592 H         1 <0>         0.1334
     40 H7          1.6900   -1.3647   -1.0859 H         1 <0>         0.1315
     41 H8         -0.2445   -2.5217    2.5347 H         1 <0>         0.1229
     42 H9         -0.0735   -0.2098    3.3648 H         1 <0>         0.1299
     43 H10        -3.1953   -3.5892    3.7458 H         1 <0>         0.1788
     44 H11        -5.2788   -0.7506    1.3414 H         1 <0>         0.1668
     45 H12        -3.8458   -1.0372   -0.5891 H         1 <0>         0.1775
     46 H13        -0.9983   -4.7620    3.5480 H         1 <0>         0.1282
     47 H14        -0.6992   -5.9888    2.2843 H         1 <0>         0.1335
     48 H15         1.0056   -3.5529    2.9848 H         1 <0>         0.1027
     49 H16         1.4902   -5.2659    3.0011 H         1 <0>         0.1127
     50 H17         2.5399   -6.2330    2.3391 H         1 <0>         0.4103
     51 H18         3.5374   -6.6383   -1.0456 H         1 <0>         0.1563
     52 H19         7.1571   -8.7066   -0.1475 H         1 <0>         0.1300
     53 H20         6.8035   -8.3025    2.2541 H         1 <0>         0.1358
     54 H21         6.7338   -7.0673    3.9496 H         1 <0>         0.0586
     55 H22         5.4924   -7.2627    5.2101 H         1 <0>         0.1030
     56 H23         5.8324   -8.5964    4.0815 H         1 <0>         0.0592
     57 H24         6.1664   -7.1256   -2.6358 H         1 <0>         0.0719
     58 H25         6.1391   -8.8806   -2.3404 H         1 <0>         0.0689
     59 H26         4.6282   -8.0177   -2.7157 H         1 <0>         0.0661
     60 H27        -1.6030   -2.5322   -1.3962 H         1 <0>         0.4600
@<TRIPOS>BOND
     1    1    2 1
     2    1   36 1
     3    1   37 1
     4    1   38 1
     5    2    7 ar
     6    2    3 ar
     7    3    4 ar
     8    3   39 1
     9    4    5 ar
    10    4   40 1
    11    5    6 ar
    12    5    8 1
    13    6    7 ar
    14    6   41 1
    15    7   42 1
    16    8    9 1
    17    8   23 1
    18    8   10 1
    19   10   11 1
    20   10   19 1
    21   10   12 1
    22   12   13 2
    23   12   21 1
    24   13   18 ar
    25   13   14 ar
    26   14   15 ar
    27   14   43 1
    28   15   16 ar
    29   15   20 1
    30   16   17 ar
    31   16   44 1
    32   17   18 ar
    33   17   45 1
    34   18   19 2
    35   19   60 1
    36   21   22 1
    37   21   46 1
    38   21   47 1
    39   22   23 1
    40   22   48 1
    41   22   49 1
    42   23   24 am
    43   24   25 2
    44   24   26 am
    45   26   27 1
    46   26   50 1
    47   27   32 ar
    48   27   28 ar
    49   28   29 ar
    50   28   51 1
    51   29   30 ar
    52   29   35 1
    53   30   31 ar
    54   30   52 1
    55   31   32 ar
    56   31   53 1
    57   32   33 1
    58   33   34 1
    59   34   54 1
    60   34   55 1
    61   34   56 1
    62   35   57 1
    63   35   58 1
    64   35   59 1
@<TRIPOS>MOLECULE
ZINC21818386
   48    50     0     0     0
SMALL
USER_CHARGES
(2S)-N-(2-chloro-4-nitro-phenyl)-2-phenyl-2-[[(2S)-tetrahydrofuran-2-yl]methylamino]acetamide
@<TRIPOS>ATOM
      1 C1         -4.9646    3.3541   -3.1962 C.ar      1 <0>        -0.0818
      2 C2         -5.1966    2.6640   -2.0211 C.ar      1 <0>        -0.1000
      3 C3         -4.4216    2.9189   -0.9052 C.ar      1 <0>        -0.0926
      4 C4         -3.4142    3.8637   -0.9645 C.ar      1 <0>        -0.1544
      5 C5         -3.1856    4.5576   -2.1381 C.ar      1 <0>        -0.1100
      6 C6         -3.9578    4.2996   -3.2552 C.ar      1 <0>        -0.0954
      7 C7         -2.5693    4.1417    0.2520 C.3       1 <0>         0.0740
      8 H1         -3.0971    3.8195    1.1617 H         1 <0>         0.1733
      9 C8         -1.2557    3.4135    0.1283 C.2       1 <0>         0.5219
     10 O1         -0.2149    4.0362    0.1269 O.2       1 <0>        -0.5033
     11 N1         -1.2375    2.0703    0.0192 N.am      1 <0>        -0.6573
     12 C9         -0.0164    1.3862   -0.0013 C.ar      1 <0>         0.1953
     13 C10         1.0925    1.9599   -0.6089 C.ar      1 <0>        -0.1077
     14 C11         2.2944    1.2799   -0.6329 C.ar      1 <0>        -0.0272
     15 C12         2.3950    0.0288   -0.0522 C.ar      1 <0>        -0.0359
     16 C13         1.2934   -0.5458    0.5544 C.ar      1 <0>        -0.0245
     17 C14         0.0873    0.1291    0.5815 C.ar      1 <0>        -0.0622
     18 Cl1        -1.2956   -0.5927    1.3432 Cl        1 <0>        -0.0227
     19 N2          3.6848   -0.6969   -0.0804 N.pl3     1 <0>         0.0220
     20 O2          3.7748   -1.7990    0.4303 O.2       1 <0>        -0.1411
     21 O3          4.6561   -0.1919   -0.6144 O.3       1 <0>        -0.1404
     22 N3         -2.3208    5.5857    0.3560 N.4       1 <0>        -0.5301
     23 C15        -3.4266    6.2618    1.0474 C.3       1 <0>        -0.0014
     24 C16        -3.1322    7.7606    1.1363 C.3       1 <0>         0.0473
     25 H2         -2.1128    7.8854    1.5302 H         1 <0>         0.0930
     26 C17        -4.2207    8.4740    1.9686 C.3       1 <0>        -0.1425
     27 C18        -4.4119    9.8300    1.2531 C.3       1 <0>        -0.1587
     28 C19        -3.4165    9.7754    0.0731 C.3       1 <0>         0.0490
     29 O4         -3.2116    8.3670   -0.1721 O.3       1 <0>        -0.3788
     30 H3         -5.5696    3.1544   -4.0682 H         1 <0>         0.1406
     31 H4         -5.9831    1.9253   -1.9750 H         1 <0>         0.1423
     32 H5         -4.6029    2.3797    0.0128 H         1 <0>         0.1380
     33 H6         -2.4015    5.2989   -2.1831 H         1 <0>         0.1241
     34 H7         -3.7763    4.8385   -4.1734 H         1 <0>         0.1407
     35 H8         -2.1822    1.5116   -0.0537 H         1 <0>         0.4537
     36 H9          1.0150    2.9367   -1.0631 H         1 <0>         0.1705
     37 H10         3.1569    1.7258   -1.1058 H         1 <0>         0.1700
     38 H11         1.3751   -1.5230    1.0070 H         1 <0>         0.1747
     39 H12        -1.3932    5.7583    0.9215 H         1 <0>         0.4582
     40 H13        -4.3602    6.1041    0.4875 H         1 <0>         0.1409
     41 H14        -3.5328    5.8482    2.0611 H         1 <0>         0.1444
     42 H15        -5.1402    7.8703    1.9640 H         1 <0>         0.0870
     43 H16        -3.8687    8.5980    3.0033 H         1 <0>         0.0928
     44 H17        -5.4537    9.9209    0.9119 H         1 <0>         0.0859
     45 H18        -4.1820   10.6485    1.9511 H         1 <0>         0.0903
     46 H19        -3.8545   10.2816   -0.7998 H         1 <0>         0.1078
     47 H20        -2.4815   10.2797    0.3585 H         1 <0>         0.0742
     48 H21        -2.2207    6.0141   -0.6522 H         1 <0>         0.4565
@<TRIPOS>BOND
     1    1    6 ar
     2    1    2 ar
     3    1   30 1
     4    2    3 ar
     5    2   31 1
     6    3    4 ar
     7    3   32 1
     8    4    5 ar
     9    4    7 1
    10    5    6 ar
    11    5   33 1
    12    6   34 1
    13    7    8 1
    14    7    9 1
    15    7   22 1
    16    9   10 2
    17    9   11 am
    18   11   12 1
    19   11   35 1
    20   12   17 ar
    21   12   13 ar
    22   13   14 ar
    23   13   36 1
    24   14   15 ar
    25   14   37 1
    26   15   16 ar
    27   15   19 1
    28   16   17 ar
    29   16   38 1
    30   17   18 1
    31   19   20 2
    32   19   21 1
    33   22   23 1
    34   22   39 1
    35   22   48 1
    36   23   24 1
    37   23   40 1
    38   23   41 1
    39   24   25 1
    40   24   29 1
    41   24   26 1
    42   26   27 1
    43   26   42 1
    44   26   43 1
    45   27   28 1
    46   27   44 1
    47   27   45 1
    48   28   29 1
    49   28   46 1
    50   28   47 1
@<TRIPOS>MOLECULE
ZINC40103960
   70    72     0     0     0
SMALL
USER_CHARGES

@<TRIPOS>ATOM
      1 C1          3.5449    2.5936   -0.4133 C.3       1 <0>        -0.1888
      2 C2          3.0318    1.1911   -0.0804 C.3       1 <0>        -0.0107
      3 N1          3.1049    0.3455   -1.2794 N.4       1 <0>        -0.3809
      4 C3          4.5099    0.1736   -1.6699 C.3       1 <0>        -0.0275
      5 C4          4.5814   -0.6116   -2.9838 C.3       1 <0>         0.1219
      6 N2          3.8395   -1.8707   -2.8155 N.pl3     1 <0>        -0.6712
      7 C5          2.4743   -1.8036   -2.2716 C.3       1 <0>         0.1157
      8 C6          2.5023   -0.9621   -0.9913 C.3       1 <0>        -0.0220
      9 C7          4.4163   -3.0975   -3.1624 C.ar      1 <0>         0.1099
     10 C8          5.1355   -3.8190   -2.2211 C.ar      1 <0>        -0.1018
     11 C9          5.7044   -5.0306   -2.5662 C.ar      1 <0>        -0.1287
     12 C10         5.5589   -5.5270   -3.8485 C.ar      1 <0>        -0.0880
     13 C11         4.8441   -4.8142   -4.7931 C.ar      1 <0>        -0.1155
     14 C12         4.2648   -3.6010   -4.4540 C.ar      1 <0>         0.1715
     15 N3          3.5339   -2.8797   -5.4085 N.am      1 <0>        -0.6819
     16 C13         3.8965   -2.9193   -6.7060 C.2       1 <0>         0.6993
     17 O1          4.7986   -3.6524   -7.0630 O.2       1 <0>        -0.5685
     18 N4          3.2594   -2.1464   -7.6077 N.am      1 <0>        -0.7270
     19 C14         3.6536   -2.1894   -9.0180 C.3       1 <0>         0.1439
     20 C15         2.8649   -1.1374   -9.8004 C.3       1 <0>         0.0703
     21 H1          3.1380   -0.1426   -9.4484 H         1 <0>         0.0947
     22 C16         3.1915   -1.2588  -11.2902 C.3       1 <0>        -0.1464
     23 C17         4.6708   -0.9401  -11.5157 C.3       1 <0>        -0.0962
     24 C18         5.0348   -1.2146  -12.9761 C.3       1 <0>        -0.1502
     25 C19         4.9299    0.5331  -11.1937 C.3       1 <0>        -0.1490
     26 N5          1.4261   -1.3515   -9.5954 N.3       1 <0>        -0.5305
     27 C20         1.0192   -2.6833  -10.0666 C.3       1 <0>         0.0087
     28 C21        -0.4709   -2.8868   -9.7802 C.3       1 <0>         0.0652
     29 O2         -1.2185   -1.8397  -10.4048 O.3       1 <0>        -0.3817
     30 C22        -0.8485   -0.5289   -9.9686 C.3       1 <0>         0.0644
     31 C23         0.6378   -0.3016  -10.2569 C.3       1 <0>         0.0136
     32 H2          4.5793    2.5312   -0.7515 H         1 <0>         0.0801
     33 H3          2.9303    3.0275   -1.2020 H         1 <0>         0.0801
     34 H4          3.4907    3.2210    0.4763 H         1 <0>         0.1064
     35 H5          3.6464    0.7571    0.7083 H         1 <0>         0.1278
     36 H6          1.9975    1.2534    0.2577 H         1 <0>         0.1302
     37 H7          4.9718    1.1516   -1.8054 H         1 <0>         0.1369
     38 H8          5.0396   -0.3737   -0.8902 H         1 <0>         0.1308
     39 H9          4.1316   -0.0258   -3.7855 H         1 <0>         0.0746
     40 H10         5.6220   -0.8289   -3.2244 H         1 <0>         0.1155
     41 H11         1.8118   -1.3382   -3.0013 H         1 <0>         0.0751
     42 H12         2.1219   -2.8091   -2.0414 H         1 <0>         0.1176
     43 H13         3.0927   -1.4751   -0.2321 H         1 <0>         0.1308
     44 H14         1.4848   -0.8211   -0.6268 H         1 <0>         0.1359
     45 H15         5.2513   -3.4340   -1.2187 H         1 <0>         0.1220
     46 H16         6.2644   -5.5910   -1.8322 H         1 <0>         0.1285
     47 H17         6.0053   -6.4741   -4.1131 H         1 <0>         0.1316
     48 H18         4.7328   -5.2047   -5.7938 H         1 <0>         0.1486
     49 H19         2.7671   -2.3522   -5.1352 H         1 <0>         0.4019
     50 H20         2.5398   -1.5616   -7.3229 H         1 <0>         0.4028
     51 H21         4.7202   -1.9819   -9.1036 H         1 <0>         0.0801
     52 H22         3.4422   -3.1785   -9.4243 H         1 <0>         0.0685
     53 H23         2.9834   -2.2746  -11.6261 H         1 <0>         0.0707
     54 H24         2.5783   -0.5566  -11.8549 H         1 <0>         0.0740
     55 H25         5.2808   -1.5669  -10.8652 H         1 <0>         0.0737
     56 H26         4.4248   -0.5878  -13.6266 H         1 <0>         0.0550
     57 H27         6.0887   -0.9875  -13.1368 H         1 <0>         0.0581
     58 H28         4.8502   -2.2641  -13.2055 H         1 <0>         0.0555
     59 H29         4.2522    1.1570  -11.7764 H         1 <0>         0.0552
     60 H30         4.7616    0.7078  -10.1311 H         1 <0>         0.0515
     61 H31         5.9606    0.7839  -11.4444 H         1 <0>         0.0578
     62 H32         1.1975   -2.7601  -11.1392 H         1 <0>         0.0525
     63 H33         1.5975   -3.4462   -9.5453 H         1 <0>         0.0880
     64 H34        -0.7900   -3.8497  -10.1790 H         1 <0>         0.0991
     65 H35        -0.6412   -2.8634   -8.7038 H         1 <0>         0.0559
     66 H36        -1.4408    0.2134  -10.5036 H         1 <0>         0.0995
     67 H37        -1.0298   -0.4370   -8.8977 H         1 <0>         0.0564
     68 H38         0.9376    0.6741   -9.8745 H         1 <0>         0.0858
     69 H39         0.8100   -0.3403  -11.3325 H         1 <0>         0.0523
     70 H40         2.6007    0.7882   -2.0329 H         1 <0>         0.4204
@<TRIPOS>BOND
     1    1    2 1
     2    1   32 1
     3    1   33 1
     4    1   34 1
     5    2    3 1
     6    2   35 1
     7    2   36 1
     8    3    8 1
     9    3    4 1
    10    3   70 1
    11    4    5 1
    12    4   37 1
    13    4   38 1
    14    5    6 1
    15    5   39 1
    16    5   40 1
    17    6    7 1
    18    6    9 1
    19    7    8 1
    20    7   41 1
    21    7   42 1
    22    8   43 1
    23    8   44 1
    24    9   14 ar
    25    9   10 ar
    26   10   11 ar
    27   10   45 1
    28   11   12 ar
    29   11   46 1
    30   12   13 ar
    31   12   47 1
    32   13   14 ar
    33   13   48 1
    34   14   15 1
    35   15   16 am
    36   15   49 1
    37   16   17 2
    38   16   18 am
    39   18   19 1
    40   18   50 1
    41   19   20 1
    42   19   51 1
    43   19   52 1
    44   20   21 1
    45   20   22 1
    46   20   26 1
    47   22   23 1
    48   22   53 1
    49   22   54 1
    50   23   24 1
    51   23   25 1
    52   23   55 1
    53   24   56 1
    54   24   57 1
    55   24   58 1
    56   25   59 1
    57   25   60 1
    58   25   61 1
    59   26   31 1
    60   26   27 1
    61   27   28 1
    62   27   62 1
    63   27   63 1
    64   28   29 1
    65   28   64 1
    66   28   65 1
    67   29   30 1
    68   30   31 1
    69   30   66 1
    70   30   67 1
    71   31   68 1
    72   31   69 1
@<TRIPOS>MOLECULE
ZINC52552913
   64    65     0     0     0
SMALL
USER_CHARGES

@<TRIPOS>ATOM
      1 C1          0.7407    1.9292   -0.9692 C.3       1 <0>        -0.1531
      2 C2          0.7934    0.4003   -0.9929 C.3       1 <0>        -0.0980
      3 H1          1.6220    0.0750   -1.6220 H         1 <0>         0.0631
      4 C3         -0.5198   -0.1466   -1.5562 C.3       1 <0>        -0.1283
      5 C4         -0.4671   -1.6755   -1.5800 C.3       1 <0>        -0.1343
      6 C5         -0.2643   -2.2010   -0.1575 C.3       1 <0>        -0.1388
      7 C6          1.0489   -1.6541    0.4059 C.3       1 <0>         0.0509
      8 C7          0.9962   -0.1252    0.4296 C.3       1 <0>        -0.1317
      9 C8          1.2517   -2.1796    1.8284 C.3       1 <0>         0.1227
     10 N1          1.1722   -3.6424    1.8246 N.am      1 <0>        -0.7676
     11 C9          1.4555   -4.3356    2.9452 C.2       1 <0>         0.7023
     12 O1          1.7769   -3.7468    3.9593 O.2       1 <0>        -0.5711
     13 N2          1.3823   -5.6814    2.9417 N.am      1 <0>        -0.7288
     14 C10         1.6902   -6.4348    4.1598 C.3       1 <0>         0.1924
     15 C11         1.5343   -7.9095    3.8912 C.ar      1 <0>        -0.1670
     16 C12         0.3818   -8.5646    4.2834 C.ar      1 <0>        -0.0463
     17 C13         0.2340   -9.9169    4.0393 C.ar      1 <0>        -0.2038
     18 C14         1.2422  -10.6223    3.3995 C.ar      1 <0>         0.1388
     19 C15         2.4020   -9.9674    3.0033 C.ar      1 <0>         0.0423
     20 C16         2.5445   -8.6062    3.2459 C.ar      1 <0>         0.1355
     21 O2          3.6755   -7.9597    2.8555 O.3       1 <0>        -0.3306
     22 C17         4.7527   -7.9129    3.7934 C.3       1 <0>         0.0369
     23 O3          3.3937  -10.6560    2.3752 O.3       1 <0>        -0.3173
     24 C18         3.3341  -10.7232    0.9490 C.3       1 <0>         0.0393
     25 O4          1.0962  -11.9531    3.1606 O.3       1 <0>        -0.3010
     26 C19        -0.1218  -12.5605    3.5959 C.3       1 <0>         0.0214
     27 N3          2.1656   -2.0924   -0.4419 N.4       1 <0>        -0.3780
     28 C20         3.4365   -1.6926    0.1769 C.3       1 <0>        -0.0604
     29 C21         2.1285   -3.5541   -0.5836 C.3       1 <0>        -0.0860
     30 H2          1.6762    2.3188   -0.5679 H         1 <0>         0.0631
     31 H3          0.5962    2.3035   -1.9826 H         1 <0>         0.0682
     32 H4         -0.0880    2.2544   -0.3401 H         1 <0>         0.0669
     33 H5         -1.3484    0.1786   -0.9272 H         1 <0>         0.0817
     34 H6         -0.6643    0.2277   -2.5697 H         1 <0>         0.0824
     35 H7         -1.4026   -2.0651   -1.9813 H         1 <0>         0.0946
     36 H8          0.3615   -2.0008   -2.2091 H         1 <0>         0.0579
     37 H9         -1.0929   -1.8757    0.4716 H         1 <0>         0.1163
     38 H10        -0.2267   -3.2902   -0.1744 H         1 <0>         0.0858
     39 H11         1.9317    0.2644    0.8309 H         1 <0>         0.0947
     40 H12         0.1676    0.2001    1.0587 H         1 <0>         0.1164
     41 H13         2.2308   -1.8698    2.1940 H         1 <0>         0.1002
     42 H14         0.4763   -1.7752    2.4791 H         1 <0>         0.1102
     43 H15         0.9158   -4.1121    1.0156 H         1 <0>         0.3973
     44 H16         1.1259   -6.1510    2.1327 H         1 <0>         0.3978
     45 H17         2.7156   -6.2276    4.4658 H         1 <0>         0.0790
     46 H18         1.0065   -6.1360    4.9544 H         1 <0>         0.0814
     47 H19        -0.4050   -8.0182    4.7821 H         1 <0>         0.1384
     48 H20        -0.6677  -10.4251    4.3476 H         1 <0>         0.1422
     49 H21         5.0653   -8.9279    4.0385 H         1 <0>         0.0570
     50 H22         5.5910   -7.3698    3.3570 H         1 <0>         0.0969
     51 H23         4.4233   -7.4052    4.6999 H         1 <0>         0.0493
     52 H24         3.3706   -9.7151    0.5360 H         1 <0>         0.0451
     53 H25         4.1813  -11.2992    0.5767 H         1 <0>         0.0963
     54 H26         2.4051  -11.2064    0.6466 H         1 <0>         0.0464
     55 H27        -0.9650  -12.0797    3.1000 H         1 <0>         0.0592
     56 H28        -0.1090  -13.6211    3.3445 H         1 <0>         0.1078
     57 H29        -0.2205  -12.4442    4.6752 H         1 <0>         0.0615
     58 H30         3.5215   -2.1519    1.1617 H         1 <0>         0.1280
     59 H31         4.2653   -2.0214   -0.4501 H         1 <0>         0.1279
     60 H32         3.4658   -0.6077    0.2782 H         1 <0>         0.1274
     61 H33         1.1287   -3.8644   -0.8873 H         1 <0>         0.1266
     62 H34         2.8504   -3.8644   -1.3390 H         1 <0>         0.1297
     63 H35         2.3788   -4.0181    0.3704 H         1 <0>         0.1401
     64 H36         2.0853   -1.6642   -1.3520 H         1 <0>         0.4233
@<TRIPOS>BOND
     1    1    2 1
     2    1   30 1
     3    1   31 1
     4    1   32 1
     5    2    3 1
     6    2    8 1
     7    2    4 1
     8    4    5 1
     9    4   33 1
    10    4   34 1
    11    5    6 1
    12    5   35 1
    13    5   36 1
    14    6    7 1
    15    6   37 1
    16    6   38 1
    17    7    8 1
    18    7    9 1
    19    7   27 1
    20    8   39 1
    21    8   40 1
    22    9   10 1
    23    9   41 1
    24    9   42 1
    25   10   11 am
    26   10   43 1
    27   11   12 2
    28   11   13 am
    29   13   14 1
    30   13   44 1
    31   14   15 1
    32   14   45 1
    33   14   46 1
    34   15   20 ar
    35   15   16 ar
    36   16   17 ar
    37   16   47 1
    38   17   18 ar
    39   17   48 1
    40   18   19 ar
    41   18   25 1
    42   19   20 ar
    43   19   23 1
    44   20   21 1
    45   21   22 1
    46   22   49 1
    47   22   50 1
    48   22   51 1
    49   23   24 1
    50   24   52 1
    51   24   53 1
    52   24   54 1
    53   25   26 1
    54   26   55 1
    55   26   56 1
    56   26   57 1
    57   27   28 1
    58   27   29 1
    59   27   64 1
    60   28   58 1
    61   28   59 1
    62   28   60 1
    63   29   61 1
    64   29   62 1
    65   29   63 1
@<TRIPOS>MOLECULE
ZINC13146647
   42    43     0     0     0
SMALL
USER_CHARGES

@<TRIPOS>ATOM
      1 C1         -0.0562    1.6896   -0.2589 C.3       1 <0>        -0.1603
      2 C2         -0.0605    0.1614   -0.1860 C.3       1 <0>         0.0605
      3 O1          0.6431   -0.3711   -1.3100 O.3       1 <0>        -0.3329
      4 C3          0.7318   -1.7145   -1.3967 C.2       1 <0>         0.4998
      5 O2          0.2251   -2.4139   -0.5405 O.2       1 <0>        -0.4142
      6 C4          1.4397   -2.3318   -2.5240 C.cat     1 <0>         0.4804
      7 N1          1.6388   -3.7171   -2.5514 N.pl3     1 <0>        -0.6284
      8 C5          1.0628   -4.5609   -1.5014 C.3       1 <0>         0.1229
      9 H1          1.1704   -4.0631   -0.5377 H         1 <0>         0.1521
     10 C6         -0.4293   -4.7916   -1.7931 C.3       1 <0>        -0.1515
     11 C7         -0.9356   -5.9269   -0.8583 C.3       1 <0>        -0.5661
     12 S1          0.4942   -7.0868   -0.9315 S.o2      1 <0>         2.3853
     13 O3          0.2696   -8.0327   -1.9678 O.2       1 <0>        -0.9114
     14 O4          0.7859   -7.5444    0.3818 O.2       1 <0>        -0.9095
     15 C8          1.8080   -5.9169   -1.4654 C.3       1 <0>        -0.6171
     16 N2          1.8840   -1.5886   -3.5021 N.pl3     1 <0>        -0.3338
     17 N3          2.4623   -2.1866   -4.6293 N.pl3     1 <0>        -0.5363
     18 C9          3.0339   -1.3927   -5.6243 C.ar      1 <0>         0.1707
     19 C10         3.0355   -0.0087   -5.4958 C.ar      1 <0>        -0.1683
     20 C11         3.6019    0.7739   -6.4822 C.ar      1 <0>        -0.0392
     21 C12         4.1676    0.1819   -7.5978 C.ar      1 <0>        -0.1088
     22 C13         4.1678   -1.1957   -7.7287 C.ar      1 <0>        -0.0382
     23 C14         3.6081   -1.9844   -6.7433 C.ar      1 <0>        -0.1378
     24 Br1         4.9417    1.2578   -8.9465 Br        1 <0>        -0.0186
     25 H2          0.9721    2.0510   -0.2484 H         1 <0>         0.0750
     26 H3         -0.5447    2.0108   -1.1789 H         1 <0>         0.0748
     27 H4         -0.5929    2.0958    0.5984 H         1 <0>         0.0998
     28 H5          0.4280   -0.1599    0.7339 H         1 <0>         0.0915
     29 H6         -1.0888   -0.2000   -0.1966 H         1 <0>         0.0911
     30 H7         -0.9884   -3.8767   -1.5974 H         1 <0>         0.1148
     31 H8         -0.5595   -5.0865   -2.8344 H         1 <0>         0.1019
     32 H9         -1.0947   -5.5609    0.1560 H         1 <0>         0.1528
     33 H10        -1.8394   -6.3900   -1.2543 H         1 <0>         0.1574
     34 H11         2.1806   -6.1796   -2.4555 H         1 <0>         0.1526
     35 H12         2.6206   -5.8922   -0.7394 H         1 <0>         0.1629
     36 H13         2.4654   -3.1525   -4.7181 H         1 <0>         0.4430
     37 H14         2.5938    0.4539   -4.6256 H         1 <0>         0.1278
     38 H15         3.6031    1.8494   -6.3832 H         1 <0>         0.1499
     39 H16         4.6098   -1.6546   -8.6007 H         1 <0>         0.1529
     40 H17         3.6128   -3.0597   -6.8437 H         1 <0>         0.1469
     41 H18         2.1583   -4.1184   -3.2656 H         1 <0>         0.4314
     42 H19         1.8135   -0.6227   -3.4478 H         1 <0>         0.4745
@<TRIPOS>BOND
     1    1    2 1
     2    1   25 1
     3    1   26 1
     4    1   27 1
     5    2    3 1
     6    2   28 1
     7    2   29 1
     8    3    4 1
     9    4    5 2
    10    4    6 1
    11    6    7 1
    12    6   16 2
    13    7    8 1
    14    7   41 1
    15    8    9 1
    16    8   15 1
    17    8   10 1
    18   10   11 1
    19   10   30 1
    20   10   31 1
    21   11   12 1
    22   11   32 1
    23   11   33 1
    24   12   13 2
    25   12   14 2
    26   12   15 1
    27   15   34 1
    28   15   35 1
    29   16   17 1
    30   16   42 1
    31   17   18 1
    32   17   36 1
    33   18   23 ar
    34   18   19 ar
    35   19   20 ar
    36   19   37 1
    37   20   21 ar
    38   20   38 1
    39   21   22 ar
    40   21   24 1
    41   22   23 ar
    42   22   39 1
    43   23   40 1
@<TRIPOS>MOLECULE
ZINC66435959
   56    58     0     0     0
SMALL
USER_CHARGES

@<TRIPOS>ATOM
      1 C1          8.0288   -7.6317    4.2980 C.3       1 <0>        -0.1194
      2 C2          6.7320   -7.5055    3.5407 C.ar      1 <0>        -0.0823
      3 C3          6.3470   -8.5007    2.6609 C.ar      1 <0>        -0.1076
      4 C4          5.1594   -8.3880    1.9654 C.ar      1 <0>        -0.1101
      5 C5          4.3510   -7.2739    2.1505 C.ar      1 <0>         0.1321
      6 C6          4.7401   -6.2767    3.0348 C.ar      1 <0>        -0.0988
      7 C7          5.9270   -6.3977    3.7311 C.ar      1 <0>        -0.1031
      8 C8          3.8660   -5.0661    3.2387 C.3       1 <0>        -0.1172
      9 N1          3.1471   -7.1564    1.4469 N.am      1 <0>        -0.6631
     10 C9          3.0419   -7.6623    0.2022 C.2       1 <0>         0.6935
     11 O1          3.9608   -8.2991   -0.2747 O.2       1 <0>        -0.4994
     12 N2          1.9178   -7.4620   -0.5139 N.am      1 <0>        -0.6749
     13 C10         1.8127   -7.9679   -1.7587 C.2       1 <0>         0.5156
     14 O2          2.7293   -8.6031   -2.2343 O.2       1 <0>        -0.4513
     15 C11         0.5557   -7.7440   -2.5593 C.3       1 <0>        -0.0342
     16 N3          0.6285   -8.5113   -3.8099 N.4       1 <0>        -0.3733
     17 C12        -0.4963   -8.1397   -4.6786 C.3       1 <0>         0.0875
     18 C13        -0.4108   -6.6723   -5.0109 C.2       1 <0>        -0.1170
     19 C14         0.1711   -6.1456   -6.1033 C.2       1 <0>        -0.1293
     20 C15         0.0209   -4.7428   -6.0114 C.2       1 <0>        -0.2171
     21 C16        -0.6439   -4.4961   -4.8684 C.2       1 <0>         0.0118
     22 O3         -0.9079   -5.6688   -4.2694 O.3       1 <0>        -0.1752
     23 C17         0.5603   -9.9474   -3.5079 C.3       1 <0>        -0.0134
     24 C18         0.8423  -10.7499   -4.7796 C.3       1 <0>         0.0563
     25 H1          1.7756  -10.4196   -5.2356 H         1 <0>         0.1005
     26 C19         0.9078  -12.2639   -4.4567 C.3       1 <0>        -0.1444
     27 C20         0.5462  -12.8758   -5.8376 C.3       1 <0>        -0.1563
     28 C21        -0.4599  -11.8477   -6.3982 C.3       1 <0>         0.0511
     29 O4         -0.2438  -10.6091   -5.7091 O.3       1 <0>        -0.3905
     30 H2          7.8503   -8.1497    5.2403 H         1 <0>         0.0746
     31 H3          8.7441   -8.1983    3.7018 H         1 <0>         0.0694
     32 H4          8.4300   -6.6385    4.4997 H         1 <0>         0.0693
     33 H5          6.9761   -9.3668    2.5174 H         1 <0>         0.1288
     34 H6          4.8596   -9.1652    1.2780 H         1 <0>         0.1413
     35 H7          6.2283   -5.6243    4.4222 H         1 <0>         0.1307
     36 H8          3.1633   -5.2578    4.0496 H         1 <0>         0.0749
     37 H9          4.4878   -4.2075    3.4921 H         1 <0>         0.0764
     38 H10         3.3147   -4.8575    2.3219 H         1 <0>         0.0596
     39 H11         2.3883   -6.7110    1.8551 H         1 <0>         0.4115
     40 H12         1.1845   -6.9538   -0.1333 H         1 <0>         0.4202
     41 H13        -0.3072   -8.0734   -1.9806 H         1 <0>         0.1683
     42 H14         0.4555   -6.6832   -2.7892 H         1 <0>         0.1671
     43 H15        -0.4535   -8.7235   -5.5981 H         1 <0>         0.1832
     44 H16        -1.4354   -8.3415   -4.1634 H         1 <0>         0.1453
     45 H17         0.6600   -6.6899   -6.8978 H         1 <0>         0.1627
     46 H18         0.3727   -4.0099   -6.7224 H         1 <0>         0.1641
     47 H19        -0.9219   -3.5207   -4.4973 H         1 <0>         0.2191
     48 H20         1.3034  -10.1949   -2.7498 H         1 <0>         0.1500
     49 H21        -0.4342  -10.1936   -3.1359 H         1 <0>         0.1416
     50 H22         1.9113  -12.5567   -4.1479 H         1 <0>         0.0999
     51 H23         0.1710  -12.5367   -3.7011 H         1 <0>         0.0906
     52 H24         1.4279  -12.9430   -6.4749 H         1 <0>         0.0866
     53 H25         0.0771  -13.8524   -5.7183 H         1 <0>         0.0959
     54 H26        -0.2910  -11.7095   -7.4661 H         1 <0>         0.0829
     55 H27        -1.4785  -12.1953   -6.2257 H         1 <0>         0.0833
     56 H28         1.4979   -8.3073   -4.2795 H         1 <0>         0.4323
@<TRIPOS>BOND
     1    1    2 1
     2    1   30 1
     3    1   31 1
     4    1   32 1
     5    2    7 ar
     6    2    3 ar
     7    3    4 ar
     8    3   33 1
     9    4    5 ar
    10    4   34 1
    11    5    6 ar
    12    5    9 1
    13    6    7 ar
    14    6    8 1
    15    7   35 1
    16    8   36 1
    17    8   37 1
    18    8   38 1
    19    9   10 am
    20    9   39 1
    21   10   11 2
    22   10   12 am
    23   12   13 am
    24   12   40 1
    25   13   14 2
    26   13   15 1
    27   15   16 1
    28   15   41 1
    29   15   42 1
    30   16   17 1
    31   16   23 1
    32   16   56 1
    33   17   18 1
    34   17   43 1
    35   17   44 1
    36   18   22 1
    37   18   19 2
    38   19   20 1
    39   19   45 1
    40   20   21 2
    41   20   46 1
    42   21   22 1
    43   21   47 1
    44   23   24 1
    45   23   48 1
    46   23   49 1
    47   24   25 1
    48   24   29 1
    49   24   26 1
    50   26   27 1
    51   26   50 1
    52   26   51 1
    53   27   28 1
    54   27   52 1
    55   27   53 1
    56   28   29 1
    57   28   54 1
    58   28   55 1
@<TRIPOS>MOLECULE
ZINC05540632
   33    34     0     0     0
SMALL
USER_CHARGES
N-(4-chloro-2-methyl-phenyl)-N'-(2-furylmethyleneamino)oxamide
@<TRIPOS>ATOM
      1 C1          4.4910    5.7134    1.0544 C.3       1 <0>        -0.1210
      2 C2          3.3206    6.4063    0.4054 C.ar      1 <0>        -0.0931
      3 C3          3.3034    7.7835    0.3018 C.ar      1 <0>        -0.0899
      4 C4          2.2262    8.4208   -0.2885 C.ar      1 <0>        -0.0426
      5 C5          1.1663    7.6802   -0.7825 C.ar      1 <0>        -0.0935
      6 C6          1.1810    6.3029   -0.6872 C.ar      1 <0>        -0.1120
      7 C7          2.2611    5.6603   -0.0946 C.ar      1 <0>         0.1425
      8 N1          2.2787    4.2661    0.0032 N.am      1 <0>        -0.6337
      9 C8          1.1209    3.5762    0.0076 C.2       1 <0>         0.5179
     10 O1          0.0612    4.1687    0.0278 O.2       1 <0>        -0.4908
     11 C9          1.1413    2.0864   -0.0123 C.2       1 <0>         0.5304
     12 O2          2.2015    1.4936   -0.0325 O.2       1 <0>        -0.4708
     13 N2         -0.0165    1.3965   -0.0079 N.am      1 <0>        -0.5559
     14 N3          0.0026   -0.0043   -0.0266 N.2       1 <0>        -0.2208
     15 C10        -1.1164   -0.6711   -0.0224 C.2       1 <0>         0.1546
     16 C11        -1.0964   -2.1352   -0.0419 C.2       1 <0>         0.0063
     17 C12        -2.1906   -2.9531   -0.0400 C.2       1 <0>        -0.1501
     18 C13        -1.7082   -4.2736   -0.0630 C.2       1 <0>        -0.2198
     19 C14        -0.3605   -4.2038   -0.0778 C.2       1 <0>        -0.0095
     20 O3          0.0052   -2.9122   -0.0709 O.3       1 <0>        -0.1556
     21 Cl1         2.2044   10.1524   -0.4100 Cl        1 <0>        -0.0650
     22 H1          5.2442    5.4883    0.2994 H         1 <0>         0.0800
     23 H2          4.9222    6.3641    1.8152 H         1 <0>         0.0796
     24 H3          4.1530    4.7867    1.5181 H         1 <0>         0.0680
     25 H4          4.1292    8.3638    0.6861 H         1 <0>         0.1411
     26 H5          0.3269    8.1802   -1.2427 H         1 <0>         0.1400
     27 H6          0.3536    5.7255   -1.0726 H         1 <0>         0.1548
     28 H7          3.1242    3.7951    0.0679 H         1 <0>         0.4270
     29 H8         -0.8631    1.8698    0.0042 H         1 <0>         0.4023
     30 H9         -2.0589   -0.1441   -0.0044 H         1 <0>         0.1541
     31 H10        -3.2256   -2.6451   -0.0238 H         1 <0>         0.1593
     32 H11        -2.3040   -5.1743   -0.0680 H         1 <0>         0.1569
     33 H12         0.3128   -5.0481   -0.0965 H         1 <0>         0.2095
@<TRIPOS>BOND
     1    1    2 1
     2    1   22 1
     3    1   23 1
     4    1   24 1
     5    2    7 ar
     6    2    3 ar
     7    3    4 ar
     8    3   25 1
     9    4    5 ar
    10    4   21 1
    11    5    6 ar
    12    5   26 1
    13    6    7 ar
    14    6   27 1
    15    7    8 1
    16    8    9 am
    17    8   28 1
    18    9   10 2
    19    9   11 1
    20   11   12 2
    21   11   13 am
    22   13   14 1
    23   13   29 1
    24   14   15 2
    25   15   16 1
    26   15   30 1
    27   16   20 1
    28   16   17 2
    29   17   18 1
    30   17   31 1
    31   18   19 2
    32   18   32 1
    33   19   20 1
    34   19   33 1
@<TRIPOS>MOLECULE
ZINC36153871
   36    39     0     0     0
SMALL
USER_CHARGES

@<TRIPOS>ATOM
      1 C1         -0.0184    1.5028    0.0103 C.3       1 <0>        -0.1227
      2 C2          0.0021   -0.0041    0.0020 C.ar      1 <0>        -0.1038
      3 C3          0.0058   -0.6966   -1.2076 C.ar      1 <0>         0.0076
      4 C4          0.0247   -2.0914   -1.2078 C.ar      1 <0>        -0.1295
      5 C5          0.0392   -2.7820   -0.0125 C.ar      1 <0>        -0.0720
      6 C6          0.0351   -2.0961    1.1870 C.ar      1 <0>        -0.1601
      7 C7          0.0230   -0.7060    1.1976 C.ar      1 <0>         0.2163
      8 N1          0.0252   -0.0165    2.4126 N.pl3     1 <0>        -0.8723
      9 C8         -0.0107    0.0458   -2.4881 C.2       1 <0>         0.1941
     10 N2         -0.0243    1.3386   -2.6885 N.2       1 <0>        -0.2615
     11 N3         -0.0381    1.8669   -3.9725 N.pl3     1 <0>        -0.3478
     12 C9         -0.0540    3.0919   -4.6079 C.2       1 <0>         0.2274
     13 N4         -0.0609    2.8791   -5.8938 N.2       1 <0>        -0.2388
     14 N5         -0.0506    1.6136   -6.1320 N.2       1 <0>        -0.2219
     15 C10        -0.0368    0.9638   -5.0077 C.2       1 <0>         0.1033
     16 S1         -0.0094   -0.5936   -4.1558 S.3       1 <0>         0.1542
     17 C11        -0.0628    4.4395   -3.9332 C.3       1 <0>         0.1709
     18 H1          0.2224    4.3308   -2.8868 H         1 <0>         0.1086
     19 C12        -1.4712    5.0644   -4.0300 C.3       1 <0>        -0.1440
     20 C13        -1.1502    6.5612   -4.2919 C.3       1 <0>        -0.1526
     21 C14         0.1357    6.4409   -5.1479 C.3       1 <0>         0.0470
     22 O1          0.8505    5.3211   -4.5968 O.3       1 <0>        -0.3570
     23 H2          1.0042    1.8801    0.0026 H         1 <0>         0.0749
     24 H3         -0.5455    1.8639   -0.8728 H         1 <0>         0.0920
     25 H4         -0.5286    1.8543    0.9071 H         1 <0>         0.0648
     26 H5          0.0276   -2.6312   -2.1433 H         1 <0>         0.1301
     27 H6          0.0535   -3.8619   -0.0150 H         1 <0>         0.1378
     28 H7          0.0457   -2.6415    2.1191 H         1 <0>         0.1317
     29 H8          0.0121    0.9534    2.4199 H         1 <0>         0.4014
     30 H9          0.0398   -0.5076    3.2489 H         1 <0>         0.4027
     31 H10        -2.0293    4.6360   -4.8625 H         1 <0>         0.0858
     32 H11        -2.0149    4.9424   -3.0933 H         1 <0>         0.0919
     33 H12        -1.9516    7.0426   -4.8524 H         1 <0>         0.0917
     34 H13        -0.9533    7.0898   -3.3592 H         1 <0>         0.0842
     35 H14        -0.1201    6.2514   -6.1903 H         1 <0>         0.0711
     36 H15         0.7330    7.3488   -5.0630 H         1 <0>         0.0948
@<TRIPOS>BOND
     1    1    2 1
     2    1   23 1
     3    1   24 1
     4    1   25 1
     5    2    7 ar
     6    2    3 ar
     7    3    4 ar
     8    3    9 1
     9    4    5 ar
    10    4   26 1
    11    5    6 ar
    12    5   27 1
    13    6    7 ar
    14    6   28 1
    15    7    8 1
    16    8   29 1
    17    8   30 1
    18    9   16 1
    19    9   10 2
    20   10   11 1
    21   11   15 1
    22   11   12 1
    23   12   13 2
    24   12   17 1
    25   13   14 1
    26   14   15 2
    27   15   16 1
    28   17   18 1
    29   17   22 1
    30   17   19 1
    31   19   20 1
    32   19   31 1
    33   19   32 1
    34   20   21 1
    35   20   33 1
    36   20   34 1
    37   21   22 1
    38   21   35 1
    39   21   36 1
@<TRIPOS>MOLECULE
ZINC45891250
   29    30     0     0     0
SMALL
USER_CHARGES

@<TRIPOS>ATOM
      1 C1         -0.0167    1.3779    0.0096 C.ar      1 <0>         0.0224
      2 C2          1.1690    2.0882    0.0021 C.ar      1 <0>        -0.1126
      3 C3          2.3839    1.4150   -0.0136 C.ar      1 <0>         0.3293
      4 C4          2.4068    0.0266   -0.0213 C.ar      1 <0>        -0.1879
      5 C5          1.2149   -0.6841   -0.0133 C.ar      1 <0>         0.3097
      6 C6          0.0021   -0.0041    0.0020 C.ar      1 <0>        -0.1233
      7 Cl1        -1.4898   -0.8917    0.0121 Cl        1 <0>        -0.0295
      8 N1          1.2334   -2.0819   -0.0214 N.pl3     1 <0>        -0.8373
      9 Br1         4.0586   -0.8936   -0.0433 Br        1 <0>         0.0026
     10 N2          3.5823    2.1345   -0.0221 N.pl3     1 <0>        -0.6750
     11 C7          4.2158    2.5361   -1.2881 C.3       1 <0>         0.1174
     12 C8          4.5311    4.0346   -1.2170 C.3       1 <0>         0.0464
     13 O1          5.2707    4.3039   -0.0236 O.3       1 <0>        -0.3759
     14 C9          4.5612    4.0128    1.1829 C.3       1 <0>         0.0465
     15 C10         4.2445    2.5181    1.2348 C.3       1 <0>         0.1175
     16 N3          1.1441    3.5682    0.0103 N.pl3     1 <0>         0.0511
     17 O2          0.0871    4.1549    0.0236 O.2       1 <0>        -0.1782
     18 O3          2.1807    4.1903    0.0038 O.3       1 <0>        -0.1427
     19 H1         -0.9598    1.9039    0.0260 H         1 <0>         0.1691
     20 H2          2.0798   -2.5557   -0.0327 H         1 <0>         0.4134
     21 H3          0.3999   -2.5781   -0.0158 H         1 <0>         0.4135
     22 H4          5.1381    1.9733   -1.4319 H         1 <0>         0.0685
     23 H5          3.5345    2.3433   -2.1169 H         1 <0>         0.0715
     24 H6          5.1232    4.3237   -2.0853 H         1 <0>         0.0955
     25 H7          3.6006    4.6023   -1.2045 H         1 <0>         0.0767
     26 H8          5.1750    4.2862    2.0412 H         1 <0>         0.0959
     27 H9          3.6309    4.5804    1.2041 H         1 <0>         0.0757
     28 H10         3.5823    2.3133    2.0760 H         1 <0>         0.0716
     29 H11         5.1698    1.9534    1.3494 H         1 <0>         0.0681
@<TRIPOS>BOND
     1    1    6 ar
     2    1    2 ar
     3    1   19 1
     4    2    3 ar
     5    2   16 1
     6    3    4 ar
     7    3   10 1
     8    4    5 ar
     9    4    9 1
    10    5    6 ar
    11    5    8 1
    12    6    7 1
    13    8   20 1
    14    8   21 1
    15   10   15 1
    16   10   11 1
    17   11   12 1
    18   11   22 1
    19   11   23 1
    20   12   13 1
    21   12   24 1
    22   12   25 1
    23   13   14 1
    24   14   15 1
    25   14   26 1
    26   14   27 1
    27   15   28 1
    28   15   29 1
    29   16   17 2
    30   16   18 1
@<TRIPOS>MOLECULE
ZINC06674524
   48    49     0     0     0
SMALL
USER_CHARGES

@<TRIPOS>ATOM
      1 C1         -0.0389    1.5296    0.0209 C.3       1 <0>        -0.1481
      2 C2         -0.0211   -0.0003    0.0105 C.3       1 <0>        -0.0876
      3 C3          0.6809   -0.4936   -1.2558 C.3       1 <0>        -0.1195
      4 C4          0.6248   -2.0209   -1.3183 C.3       1 <0>        -0.1128
      5 C5          1.4036   -2.6076   -0.1362 C.3       1 <0>        -0.1278
      6 C6          0.8544   -2.0155    1.1429 C.2       1 <0>         0.1199
      7 N1          0.5007   -2.7685    2.1160 N.2       1 <0>        -0.2396
      8 N2          0.5232   -4.1614    1.9679 N.am      1 <0>        -0.5610
      9 C7          0.0512   -4.9515    2.9525 C.2       1 <0>         0.5336
     10 O1         -0.3933   -4.4560    3.9680 O.2       1 <0>        -0.4821
     11 C8          0.0751   -6.4341    2.7949 C.2       1 <0>         0.5337
     12 O2          0.5197   -6.9296    1.7794 O.2       1 <0>        -0.4823
     13 N3         -0.3968   -7.2242    3.7795 N.am      1 <0>        -0.5609
     14 N4         -0.3744   -8.6171    3.6314 N.2       1 <0>        -0.2398
     15 C9         -0.9134   -9.3642    4.5205 C.2       1 <0>         0.1197
     16 C10        -0.9920  -10.8628    4.3306 C.3       1 <0>        -0.0624
     17 C11        -2.4401  -11.3077    4.5609 C.3       1 <0>        -0.1163
     18 C12        -2.9092  -10.8208    5.9329 C.3       1 <0>        -0.1197
     19 C13        -2.9176   -9.2916    5.9654 C.3       1 <0>        -0.0839
     20 C14        -1.4823   -8.7714    5.7906 C.3       1 <0>        -0.1229
     21 C15        -3.4720   -8.8128    7.3087 C.3       1 <0>        -0.1504
     22 C16         0.7334   -0.5110    1.2425 C.3       1 <0>        -0.0577
     23 H1          0.9842    1.9051    0.0018 H         1 <0>         0.0585
     24 H2         -0.5756    1.8927   -0.8555 H         1 <0>         0.0597
     25 H3         -0.5381    1.8810    0.9240 H         1 <0>         0.0589
     26 H4         -1.0441   -0.3759    0.0291 H         1 <0>         0.0753
     27 H5          0.1835   -0.0767   -2.1316 H         1 <0>         0.0708
     28 H6          1.7215   -0.1694   -1.2429 H         1 <0>         0.0693
     29 H7         -0.4134   -2.3489   -1.2683 H         1 <0>         0.0660
     30 H8          1.0699   -2.3631   -2.2526 H         1 <0>         0.0750
     31 H9          1.2827   -3.6908   -0.1197 H         1 <0>         0.0699
     32 H10         2.4597   -2.3557   -0.2324 H         1 <0>         0.0978
     33 H11         0.8783   -4.5573    1.1566 H         1 <0>         0.3992
     34 H12        -0.7520   -6.8284    4.5908 H         1 <0>         0.3991
     35 H13        -0.6870  -11.1198    3.3162 H         1 <0>         0.0889
     36 H14        -0.3383  -11.3577    5.0489 H         1 <0>         0.0932
     37 H15        -3.0785  -10.8827    3.7864 H         1 <0>         0.0675
     38 H16        -2.4966  -12.3956    4.5223 H         1 <0>         0.0791
     39 H17        -3.9157  -11.1928    6.1247 H         1 <0>         0.0707
     40 H18        -2.2330  -11.1958    6.7011 H         1 <0>         0.0692
     41 H19        -3.5447   -8.9142    5.1577 H         1 <0>         0.0738
     42 H20        -0.8732   -9.0761    6.6417 H         1 <0>         0.0982
     43 H21        -1.4924   -7.6841    5.7147 H         1 <0>         0.0699
     44 H22        -2.8443   -9.1899    8.1160 H         1 <0>         0.0586
     45 H23        -3.4779   -7.7231    7.3317 H         1 <0>         0.0567
     46 H24        -4.4889   -9.1844    7.4352 H         1 <0>         0.0605
     47 H25         1.7274   -0.0650    1.2740 H         1 <0>         0.0934
     48 H26         0.1819   -0.2470    2.1449 H         1 <0>         0.0889
@<TRIPOS>BOND
     1    1    2 1
     2    1   23 1
     3    1   24 1
     4    1   25 1
     5    2   22 1
     6    2    3 1
     7    2   26 1
     8    3    4 1
     9    3   27 1
    10    3   28 1
    11    4    5 1
    12    4   29 1
    13    4   30 1
    14    5    6 1
    15    5   31 1
    16    5   32 1
    17    6    7 2
    18    6   22 1
    19    7    8 1
    20    8    9 am
    21    8   33 1
    22    9   10 2
    23    9   11 1
    24   11   12 2
    25   11   13 am
    26   13   14 1
    27   13   34 1
    28   14   15 2
    29   15   20 1
    30   15   16 1
    31   16   17 1
    32   16   35 1
    33   16   36 1
    34   17   18 1
    35   17   37 1
    36   17   38 1
    37   18   19 1
    38   18   39 1
    39   18   40 1
    40   19   20 1
    41   19   21 1
    42   19   41 1
    43   20   42 1
    44   20   43 1
    45   21   44 1
    46   21   45 1
    47   21   46 1
    48   22   47 1
    49   22   48 1
@<TRIPOS>MOLECULE
ZINC26451930
   45    46     0     0     0
SMALL
USER_CHARGES

@<TRIPOS>ATOM
      1 C1          1.2008    1.2359   -0.1727 C.3       1 <0>        -0.1163
      2 C2          0.5725   -0.1311   -0.0849 C.ar      1 <0>        -0.0662
      3 C3         -0.0333   -0.6856   -1.1977 C.ar      1 <0>        -0.1336
      4 C4         -0.6113   -1.9393   -1.1211 C.ar      1 <0>        -0.0981
      5 C5         -0.5854   -2.6419    0.0679 C.ar      1 <0>        -0.1321
      6 C6          0.0224   -2.0882    1.1867 C.ar      1 <0>         0.1626
      7 C7          0.6071   -0.8310    1.1050 C.ar      1 <0>        -0.1178
      8 C8          1.2732   -0.2287    2.3153 C.3       1 <0>        -0.1163
      9 N1          0.0504   -2.7974    2.3927 N.am      1 <0>        -0.6739
     10 C9         -0.0340   -4.1425    2.3855 C.2       1 <0>         0.6939
     11 O1         -0.0314   -4.7459    1.3305 O.2       1 <0>        -0.5063
     12 N2         -0.1214   -4.8184    3.5483 N.am      1 <0>        -0.6908
     13 C10        -0.2058   -6.1635    3.5411 C.2       1 <0>         0.5164
     14 O2         -0.2031   -6.7655    2.4887 O.2       1 <0>        -0.4418
     15 C11        -0.3034   -6.9193    4.8412 C.3       1 <0>         0.0337
     16 N3         -0.3835   -8.3600    4.5653 N.3       1 <0>        -0.5168
     17 C12        -1.6389   -8.6958    3.8780 C.3       1 <0>         0.0111
     18 C13        -1.6542  -10.1927    3.5572 C.3       1 <0>         0.0653
     19 O3         -1.4836  -10.9361    4.7670 O.3       1 <0>        -0.3851
     20 C14        -0.2706  -10.6344    5.4620 C.3       1 <0>         0.0689
     21 C15        -0.2413   -9.1419    5.8021 C.3       1 <0>         0.0450
     22 H1         -1.0633   -8.9065    6.4780 H         1 <0>         0.0545
     23 C16         1.0890   -8.7972    6.4745 C.3       1 <0>        -0.1505
     24 H2          2.2444    1.1375   -0.4715 H         1 <0>         0.0720
     25 H3          0.6665    1.8347   -0.9103 H         1 <0>         0.0685
     26 H4          1.1459    1.7242    0.8003 H         1 <0>         0.0687
     27 H5         -0.0552   -0.1381   -2.1283 H         1 <0>         0.1236
     28 H6         -1.0839   -2.3695   -1.9918 H         1 <0>         0.1265
     29 H7         -1.0376   -3.6209    0.1272 H         1 <0>         0.1455
     30 H8          0.5418    0.3447    2.8849 H         1 <0>         0.0713
     31 H9          1.6781   -1.0243    2.9407 H         1 <0>         0.0607
     32 H10         2.0814    0.4291    1.9956 H         1 <0>         0.0755
     33 H11         0.1305   -2.3209    3.2338 H         1 <0>         0.4085
     34 H12        -0.1235   -4.3368    4.3902 H         1 <0>         0.4105
     35 H13         0.5786   -6.7140    5.4479 H         1 <0>         0.1187
     36 H14        -1.1966   -6.6023    5.3796 H         1 <0>         0.0733
     37 H15        -2.4832   -8.4532    4.5232 H         1 <0>         0.0415
     38 H16        -1.7113   -8.1245    2.9525 H         1 <0>         0.1035
     39 H17        -2.6072  -10.4570    3.0989 H         1 <0>         0.1005
     40 H18        -0.8416  -10.4258    2.8692 H         1 <0>         0.0638
     41 H19        -0.2230  -11.2182    6.3813 H         1 <0>         0.1007
     42 H20         0.5822  -10.8803    4.8293 H         1 <0>         0.0626
     43 H21         1.1109   -7.7338    6.7128 H         1 <0>         0.0599
     44 H22         1.1938   -9.3773    7.3913 H         1 <0>         0.0689
     45 H23         1.9102   -9.0349    5.7983 H         1 <0>         0.0696
@<TRIPOS>BOND
     1    1    2 1
     2    1   24 1
     3    1   25 1
     4    1   26 1
     5    2    7 ar
     6    2    3 ar
     7    3    4 ar
     8    3   27 1
     9    4    5 ar
    10    4   28 1
    11    5    6 ar
    12    5   29 1
    13    6    7 ar
    14    6    9 1
    15    7    8 1
    16    8   30 1
    17    8   31 1
    18    8   32 1
    19    9   10 am
    20    9   33 1
    21   10   11 2
    22   10   12 am
    23   12   13 am
    24   12   34 1
    25   13   14 2
    26   13   15 1
    27   15   16 1
    28   15   35 1
    29   15   36 1
    30   16   21 1
    31   16   17 1
    32   17   18 1
    33   17   37 1
    34   17   38 1
    35   18   19 1
    36   18   39 1
    37   18   40 1
    38   19   20 1
    39   20   21 1
    40   20   41 1
    41   20   42 1
    42   21   22 1
    43   21   23 1
    44   23   43 1
    45   23   44 1
    46   23   45 1
@<TRIPOS>MOLECULE
ZINC05945252
   29    31     0     0     0
SMALL
USER_CHARGES
4-(2-furyl)-2-(trifluoromethyl)-1,5,7,9-tetrazabicyclo[4.3.0]nona-6,8-dien-8-amine
@<TRIPOS>ATOM
      1 C1         -5.7180    4.4986   -3.7930 C.2       1 <0>        -0.2144
      2 C2         -5.8653    4.9703   -2.4684 C.2       1 <0>        -0.1806
      3 C3         -4.9334    4.3456   -1.7263 C.2       1 <0>        -0.0575
      4 O1         -4.2388    3.5191   -2.5252 O.3       1 <0>        -0.1659
      5 C4         -4.7102    3.6077   -3.7796 C.2       1 <0>        -0.0268
      6 C5         -4.7107    4.5360   -0.2481 C.3       1 <0>         0.2486
      7 H1         -5.1407    5.4866    0.0672 H         1 <0>         0.1463
      8 C6         -5.3741    3.3898    0.5240 C.3       1 <0>        -0.1550
      9 C7         -4.8129    2.0469    0.0405 C.3       1 <0>         0.1355
     10 H2         -5.1748    1.8412   -0.9669 H         1 <0>         0.1283
     11 N1         -3.3522    2.1218    0.0309 N.pl3     1 <0>        -0.4122
     12 C8         -2.6474    3.2784    0.0331 C.2       1 <0>         0.5672
     13 N2         -1.3755    2.9802    0.0306 N.2       1 <0>        -0.5893
     14 C9         -1.2291    1.6471    0.0168 C.2       1 <0>         0.4995
     15 N3         -2.4176    1.0856    0.0194 N.2       1 <0>        -0.3609
     16 N4         -0.0111    0.9658    0.0074 N.pl3     1 <0>        -0.8212
     17 N5         -3.2636    4.5227    0.0406 N.pl3     1 <0>        -0.7016
     18 C10        -5.2629    0.9324    0.9873 C.3       1 <0>         0.4562
     19 F1         -4.8027    1.2046    2.2801 F         1 <0>        -0.1738
     20 F2         -6.6602    0.8627    0.9948 F         1 <0>        -0.1745
     21 F3         -4.7374   -0.2892    0.5527 F         1 <0>        -0.1590
     22 H3         -6.3049    4.7937   -4.6503 H         1 <0>         0.1526
     23 H4         -6.5862    5.6949   -2.1196 H         1 <0>         0.1543
     24 H5         -4.3428    3.0569   -4.6329 H         1 <0>         0.2036
     25 H6         -6.4507    3.4146    0.3557 H         1 <0>         0.1272
     26 H7         -5.1716    3.5051    1.5889 H         1 <0>         0.1101
     27 H8          0.0021   -0.0041    0.0020 H         1 <0>         0.4153
     28 H9          0.8223    1.4622    0.0021 H         1 <0>         0.4148
     29 H10        -2.7705    5.3375    0.2250 H         1 <0>         0.4332
@<TRIPOS>BOND
     1    1    5 2
     2    1    2 1
     3    1   22 1
     4    2    3 2
     5    2   23 1
     6    3    4 1
     7    3    6 1
     8    4    5 1
     9    5   24 1
    10    6    7 1
    11    6   17 1
    12    6    8 1
    13    8    9 1
    14    8   25 1
    15    8   26 1
    16    9   10 1
    17    9   11 1
    18    9   18 1
    19   11   15 1
    20   11   12 1
    21   12   13 2
    22   12   17 1
    23   13   14 1
    24   14   15 2
    25   14   16 1
    26   16   27 1
    27   16   28 1
    28   17   29 1
    29   18   19 1
    30   18   20 1
    31   18   21 1
@<TRIPOS>MOLECULE
ZINC37055132
   36    37     0     0     0
SMALL
USER_CHARGES

@<TRIPOS>ATOM
      1 C1         -0.2281    0.9701   -0.0108 C.3       1 <0>        -0.1343
      2 C2         -0.0899   -0.5200    0.1663 C.ar      1 <0>        -0.0356
      3 C3         -0.3174   -1.3661   -0.9038 C.ar      1 <0>        -0.0985
      4 C4         -0.1916   -2.7320   -0.7450 C.ar      1 <0>        -0.1334
      5 C5          0.1639   -3.2561    0.4915 C.ar      1 <0>         0.1927
      6 C6          0.3917   -2.4036    1.5641 C.ar      1 <0>        -0.0566
      7 C7          0.2697   -1.0380    1.3969 C.ar      1 <0>        -0.6379
      8 S1          0.5654    0.0449    2.7550 S.o2      1 <0>         2.6913
      9 O1          1.2918   -0.7033    3.7203 O.2       1 <0>        -0.9453
     10 O2          1.0564    1.2602    2.2061 O.2       1 <0>        -0.9450
     11 N1         -0.9047    0.3919    3.4337 N.pl3     1 <0>        -1.0040
     12 C8         -1.6415    1.6172    3.0808 C.3       1 <0>         0.0956
     13 C9         -2.9751    1.2083    2.4524 C.3       1 <0>         0.0903
     14 N2         -3.6246    0.1742    3.2462 N.am      1 <0>        -0.7137
     15 C10        -2.9933   -0.6348    4.0982 C.2       1 <0>         0.5150
     16 O3         -3.6302   -1.5110    4.6437 O.2       1 <0>        -0.5436
     17 C11        -1.5304   -0.5139    4.4086 C.3       1 <0>         0.1098
     18 C12         0.7771   -2.9677    2.9074 C.3       1 <0>        -0.1333
     19 N3          0.2916   -4.6373    0.6558 N.pl3     1 <0>        -0.8757
     20 H1          0.7299    1.3899   -0.3176 H         1 <0>         0.0910
     21 H2         -0.9771    1.1772   -0.7751 H         1 <0>         0.0739
     22 H3         -0.5370    1.4210    0.9323 H         1 <0>         0.0691
     23 H4         -0.5941   -0.9580   -1.8647 H         1 <0>         0.1320
     24 H5         -0.3698   -3.3921   -1.5810 H         1 <0>         0.1291
     25 H6         -1.8238    2.2082    3.9783 H         1 <0>         0.0934
     26 H7         -1.0621    2.2018    2.3662 H         1 <0>         0.1203
     27 H8         -3.6273    2.0798    2.3958 H         1 <0>         0.0957
     28 H9         -2.7963    0.8290    1.4463 H         1 <0>         0.0741
     29 H10        -4.5837    0.0666    3.1486 H         1 <0>         0.4032
     30 H11        -1.0621   -1.4962    4.3470 H         1 <0>         0.1207
     31 H12        -1.4060   -0.1107    5.4136 H         1 <0>         0.1154
     32 H13         1.8612   -2.9375    3.0167 H         1 <0>         0.0914
     33 H14         0.3157   -2.3741    3.6966 H         1 <0>         0.0862
     34 H15         0.4332   -3.9994    2.9805 H         1 <0>         0.0650
     35 H16         0.1319   -5.2317   -0.0939 H         1 <0>         0.4004
     36 H17         0.5399   -5.0021    1.5196 H         1 <0>         0.4011
@<TRIPOS>BOND
     1    1    2 1
     2    1   20 1
     3    1   21 1
     4    1   22 1
     5    2    7 ar
     6    2    3 ar
     7    3    4 ar
     8    3   23 1
     9    4    5 ar
    10    4   24 1
    11    5    6 ar
    12    5   19 1
    13    6    7 ar
    14    6   18 1
    15    7    8 1
    16    8    9 2
    17    8   10 2
    18    8   11 1
    19   11   17 1
    20   11   12 1
    21   12   13 1
    22   12   25 1
    23   12   26 1
    24   13   14 1
    25   13   27 1
    26   13   28 1
    27   14   15 am
    28   14   29 1
    29   15   16 2
    30   15   17 1
    31   17   30 1
    32   17   31 1
    33   18   32 1
    34   18   33 1
    35   18   34 1
    36   19   35 1
    37   19   36 1
@<TRIPOS>MOLECULE
ZINC48396902
   44    45     0     0     0
SMALL
USER_CHARGES

@<TRIPOS>ATOM
      1 C1         -0.0157    1.5165    0.0015 C.3       1 <0>        -0.1472
      2 C2          0.0048   -0.0133   -0.0006 C.3       1 <0>        -0.0999
      3 H1         -1.0179   -0.3904    0.0075 H         1 <0>         0.0868
      4 C3          0.7223   -0.5120   -1.2566 C.3       1 <0>        -0.1148
      5 C4          0.7428   -2.0419   -1.2587 C.3       1 <0>        -0.1216
      6 C5          1.4812   -2.5438   -0.0163 C.3       1 <0>        -0.1169
      7 C6          0.7637   -2.0451    1.2397 C.3       1 <0>        -0.1320
      8 C7          0.7433   -0.5152    1.2418 C.3       1 <0>         0.1675
      9 H2          0.2321   -0.1599    2.1366 H         1 <0>         0.0894
     10 N1          2.1178   -0.0084    1.2309 N.am      1 <0>        -0.7356
     11 C8          2.7950    0.1277    2.3882 C.2       1 <0>         0.7093
     12 O1          2.2369   -0.0831    3.4476 O.2       1 <0>        -0.5882
     13 N2          4.0909    0.4977    2.3712 N.am      1 <0>        -0.6312
     14 C9          4.7459    0.8725    1.1105 C.3       1 <0>         0.1125
     15 C10         5.3849    2.2545    1.2787 C.3       1 <0>        -0.1160
     16 C11         6.3188    2.2361    2.4910 C.3       1 <0>        -0.1077
     17 C12         5.5131    1.9197    3.7531 C.3       1 <0>        -0.1270
     18 C13         4.8738    0.5397    3.6137 C.3       1 <0>         0.1309
     19 C14         6.9754    3.5844    2.6394 C.2       1 <0>         0.5210
     20 O2          6.7215    4.4724    1.8533 O.2       1 <0>        -0.5406
     21 N3          7.8447    3.8035    3.6458 N.am      1 <0>        -0.8555
     22 H3          1.0070    1.8936   -0.0066 H         1 <0>         0.0533
     23 H4         -0.5418    1.8741   -0.8837 H         1 <0>         0.0576
     24 H5         -0.5268    1.8718    0.8962 H         1 <0>         0.0571
     25 H6          0.1962   -0.1544   -2.1417 H         1 <0>         0.0673
     26 H7          1.7450   -0.1349   -1.2647 H         1 <0>         0.0568
     27 H8         -0.2799   -2.4189   -1.2506 H         1 <0>         0.0642
     28 H9          1.2539   -2.3971   -2.1535 H         1 <0>         0.0625
     29 H10         1.4958   -3.6337   -0.0178 H         1 <0>         0.0612
     30 H11         2.5039   -2.1667   -0.0244 H         1 <0>         0.0592
     31 H12        -0.2589   -2.4221    1.2478 H         1 <0>         0.0719
     32 H13         1.2898   -2.4026    2.1248 H         1 <0>         0.0674
     33 H14         2.5405    0.2291    0.3908 H         1 <0>         0.3936
     34 H15         5.5163    0.1407    0.8674 H         1 <0>         0.0730
     35 H16         4.0062    0.9068    0.3106 H         1 <0>         0.0787
     36 H17         5.9554    2.5029    0.3838 H         1 <0>         0.0854
     37 H18         4.6046    3.0000    1.4319 H         1 <0>         0.0765
     38 H19         7.0843    1.4734    2.3482 H         1 <0>         0.1020
     39 H20         6.1747    1.9298    4.6192 H         1 <0>         0.0815
     40 H21         4.7315    2.6683    3.8829 H         1 <0>         0.0748
     41 H22         4.2185    0.3546    4.4649 H         1 <0>         0.0998
     42 H23         5.6549   -0.2197    3.5793 H         1 <0>         0.0687
     43 H24         8.0478    3.0933    4.2745 H         1 <0>         0.4018
     44 H25         8.2674    4.6713    3.7413 H         1 <0>         0.4026
@<TRIPOS>BOND
     1    1    2 1
     2    1   22 1
     3    1   23 1
     4    1   24 1
     5    2    3 1
     6    2    8 1
     7    2    4 1
     8    4    5 1
     9    4   25 1
    10    4   26 1
    11    5    6 1
    12    5   27 1
    13    5   28 1
    14    6    7 1
    15    6   29 1
    16    6   30 1
    17    7    8 1
    18    7   31 1
    19    7   32 1
    20    8    9 1
    21    8   10 1
    22   10   11 am
    23   10   33 1
    24   11   12 2
    25   11   13 am
    26   13   18 1
    27   13   14 1
    28   14   15 1
    29   14   34 1
    30   14   35 1
    31   15   16 1
    32   15   36 1
    33   15   37 1
    34   16   17 1
    35   16   19 1
    36   16   38 1
    37   17   18 1
    38   17   39 1
    39   17   40 1
    40   18   41 1
    41   18   42 1
    42   19   20 2
    43   19   21 am
    44   21   43 1
    45   21   44 1
@<TRIPOS>MOLECULE
ZINC50307869
   39    41     0     0     0
SMALL
USER_CHARGES

@<TRIPOS>ATOM
      1 C1          0.0022    1.4897    0.0215 C.3       1 <0>        -0.1504
      2 C2          0.0166   -0.0400   -0.0065 C.3       1 <0>        -0.0416
      3 C3         -1.3993   -0.5560    0.0063 C.2       1 <0>        -0.0727
      4 C4         -2.2062   -0.7285   -1.0741 C.2       1 <0>         0.1633
      5 C5         -3.4277   -1.2312   -0.5564 C.2       1 <0>        -0.0629
      6 N1         -3.2841   -1.3257    0.7520 N.2       1 <0>        -0.2428
      7 N2         -2.1084   -0.9422    1.0991 N.pl3     1 <0>        -0.3639
      8 H1         -1.7756   -0.9281    2.0102 H         1 <0>         0.4472
      9 C6         -4.6310   -1.5813   -1.3335 C.2       1 <0>         0.6159
     10 O1         -4.6666   -1.3648   -2.5296 O.2       1 <0>        -0.5332
     11 N3         -5.6914   -2.1411   -0.7182 N.am      1 <0>        -0.5983
     12 C7         -5.7638   -2.3115    0.7511 C.3       1 <0>         0.0549
     13 C8         -7.0986   -1.8000    1.2903 C.3       1 <0>         0.0493
     14 O2         -8.2073   -2.2489    0.4893 O.3       1 <0>        -0.3642
     15 C9         -8.0637   -1.8450   -0.8522 C.3       1 <0>         0.0672
     16 H2         -7.8408   -0.7784   -0.8804 H         1 <0>         0.0596
     17 C10        -6.8604   -2.6213   -1.4467 C.3       1 <0>         0.1010
     18 H3         -6.9858   -3.6956   -1.3119 H         1 <0>         0.0903
     19 C11        -6.9574   -2.2311   -2.9238 C.3       1 <0>        -0.1128
     20 C12        -8.4849   -2.3062   -3.2019 C.3       1 <0>        -0.1249
     21 C13        -9.1740   -2.1453   -1.8454 C.3       1 <0>        -0.1115
     22 N4         -1.8967   -0.4653   -2.4165 N.pl3     1 <0>        -0.8525
     23 H4          1.0263    1.8629    0.0123 H         1 <0>         0.0627
     24 H5         -0.5288    1.8641   -0.8536 H         1 <0>         0.0584
     25 H6         -0.5011    1.8318    0.9258 H         1 <0>         0.0544
     26 H7          0.5199   -0.3821   -0.9108 H         1 <0>         0.0824
     27 H8          0.5476   -0.4144    0.8687 H         1 <0>         0.0748
     28 H9         -5.6595   -3.3686    0.9954 H         1 <0>         0.0723
     29 H10        -4.9513   -1.7543    1.2174 H         1 <0>         0.1377
     30 H11        -7.2300   -2.1588    2.3111 H         1 <0>         0.1087
     31 H12        -7.0843   -0.7102    1.2977 H         1 <0>         0.0553
     32 H13        -6.5859   -1.2185   -3.0807 H         1 <0>         0.0947
     33 H14        -6.4162   -2.9428   -3.5473 H         1 <0>         0.0742
     34 H15        -8.7797   -1.5136   -3.8896 H         1 <0>         0.0744
     35 H16        -8.7421   -3.2797   -3.6193 H         1 <0>         0.0699
     36 H17        -9.6971   -3.0590   -1.5632 H         1 <0>         0.0792
     37 H18        -9.8717   -1.3095   -1.8970 H         1 <0>         0.0742
     38 H19        -1.0218   -0.1202   -2.6538 H         1 <0>         0.3975
     39 H20        -2.5575   -0.6284   -3.1076 H         1 <0>         0.4126
@<TRIPOS>BOND
     1    1    2 1
     2    1   23 1
     3    1   24 1
     4    1   25 1
     5    2    3 1
     6    2   26 1
     7    2   27 1
     8    3    7 1
     9    3    4 2
    10    4    5 1
    11    4   22 1
    12    5    6 2
    13    5    9 1
    14    6    7 1
    15    7    8 1
    16    9   10 2
    17    9   11 am
    18   11   17 1
    19   11   12 1
    20   12   13 1
    21   12   28 1
    22   12   29 1
    23   13   14 1
    24   13   30 1
    25   13   31 1
    26   14   15 1
    27   15   16 1
    28   15   21 1
    29   15   17 1
    30   17   18 1
    31   17   19 1
    32   19   20 1
    33   19   32 1
    34   19   33 1
    35   20   21 1
    36   20   34 1
    37   20   35 1
    38   21   36 1
    39   21   37 1
    40   22   38 1
    41   22   39 1
@<TRIPOS>MOLECULE
ZINC62811614
   41    43     0     0     0
SMALL
USER_CHARGES

@<TRIPOS>ATOM
      1 C1         -0.0188    1.5323    0.0105 C.3       1 <0>        -0.1294
      2 C2          0.0021   -0.0041    0.0020 C.3       1 <0>        -0.0728
      3 C3          0.6853   -0.5783   -1.2693 C.3       1 <0>        -0.1243
      4 C4          0.1286   -2.0237   -1.2309 C.3       1 <0>         0.1405
      5 H1          0.2155   -2.5167   -2.2077 H         1 <0>         0.0970
      6 C5          0.8884   -2.7723   -0.1386 C.3       1 <0>        -0.1170
      7 C6          0.8225   -2.1046    1.2231 C.3       1 <0>        -0.0513
      8 C7          0.7262   -0.5905    1.2125 C.3       1 <0>        -0.0950
      9 C8          2.1257   -2.4743    1.9752 C.3       1 <0>        -0.1471
     10 C9         -0.3322   -2.7015    2.0403 C.3       1 <0>        -0.1436
     11 N1         -1.2831   -1.8752   -0.8250 N.am      1 <0>        -0.5976
     12 C10        -1.4167   -0.6102   -0.0863 C.3       1 <0>         0.1207
     13 C11        -2.2810   -2.7412   -1.0938 C.2       1 <0>         0.6243
     14 O1         -2.0527   -3.7546   -1.7258 O.2       1 <0>        -0.5437
     15 C12        -3.6491   -2.4592   -0.6215 C.2       1 <0>        -0.0652
     16 C13        -4.7942   -3.2729   -0.8202 C.2       1 <0>         0.1551
     17 C14        -5.8163   -2.6133   -0.2132 C.2       1 <0>        -0.1119
     18 N2         -5.2978   -1.4731    0.3136 N.pl3     1 <0>        -0.3682
     19 H2         -5.8047   -0.8087    0.8061 H         1 <0>         0.4491
     20 N3         -4.0383   -1.4053    0.0708 N.2       1 <0>        -0.2331
     21 N4         -4.8582   -4.4985   -1.4991 N.pl3     1 <0>        -0.8558
     22 H3          1.0038    1.9096    0.0027 H         1 <0>         0.0622
     23 H4         -0.5459    1.8934   -0.8726 H         1 <0>         0.0607
     24 H5         -0.5290    1.8838    0.9073 H         1 <0>         0.0601
     25 H6          0.3608   -0.0506   -2.1660 H         1 <0>         0.0754
     26 H7          1.7708   -0.5661   -1.1769 H         1 <0>         0.0872
     27 H8          0.4918   -3.7943   -0.0576 H         1 <0>         0.0663
     28 H9          1.9432   -2.8663   -0.4382 H         1 <0>         0.0708
     29 H10         1.7430   -0.1688    1.2568 H         1 <0>         0.0638
     30 H11         0.2131   -0.2591    2.1291 H         1 <0>         0.0629
     31 H12         2.9856   -2.1130    1.4112 H         1 <0>         0.0542
     32 H13         2.1188   -2.0126    2.9626 H         1 <0>         0.0538
     33 H14         2.1895   -3.5572    2.0809 H         1 <0>         0.0537
     34 H15        -0.1696   -3.7713    2.1712 H         1 <0>         0.0509
     35 H16        -0.3743   -2.2183    3.0165 H         1 <0>         0.0515
     36 H17        -1.2724   -2.5387    1.5134 H         1 <0>         0.0580
     37 H18        -1.8305   -0.7770    0.9026 H         1 <0>         0.0805
     38 H19        -2.0703    0.0680   -0.6435 H         1 <0>         0.0663
     39 H20        -6.8460   -2.9346   -0.1600 H         1 <0>         0.1804
     40 H21        -4.0573   -4.8756   -1.8957 H         1 <0>         0.4123
     41 H22        -5.7034   -4.9689   -1.5722 H         1 <0>         0.3982
@<TRIPOS>BOND
     1    1    2 1
     2    1   22 1
     3    1   23 1
     4    1   24 1
     5    2    8 1
     6    2   12 1
     7    2    3 1
     8    3    4 1
     9    3   25 1
    10    3   26 1
    11    4    5 1
    12    4    6 1
    13    4   11 1
    14    6    7 1
    15    6   27 1
    16    6   28 1
    17    7    8 1
    18    7    9 1
    19    7   10 1
    20    8   29 1
    21    8   30 1
    22    9   31 1
    23    9   32 1
    24    9   33 1
    25   10   34 1
    26   10   35 1
    27   10   36 1
    28   11   12 1
    29   11   13 am
    30   12   37 1
    31   12   38 1
    32   13   14 2
    33   13   15 1
    34   15   20 2
    35   15   16 1
    36   16   17 2
    37   16   21 1
    38   17   18 1
    39   17   39 1
    40   18   19 1
    41   18   20 1
    42   21   40 1
    43   21   41 1
@<TRIPOS>MOLECULE
ZINC10612932
   52    55     0     0     0
SMALL
USER_CHARGES
N-[4-[2-[[5-oxo-9-(p-tolyl)-2,4,8,9-tetrazabicyclo[4.3.0]nona-2,7,10-trien-3-yl]sulfanyl]acetyl]aminophenyl]acetamide
@<TRIPOS>ATOM
      1 C1        -11.2349    1.3269    1.0330 C.3       1 <0>        -0.1179
      2 C2        -11.0735    2.8246    1.0757 C.ar      1 <0>        -0.0798
      3 C3        -11.9355    3.5900    1.8394 C.ar      1 <0>        -0.1038
      4 C4        -11.7901    4.9629    1.8806 C.ar      1 <0>        -0.0996
      5 C5        -10.7772    5.5745    1.1536 C.ar      1 <0>         0.1385
      6 C6         -9.9171    4.8036    0.3827 C.ar      1 <0>        -0.1075
      7 C7        -10.0639    3.4306    0.3506 C.ar      1 <0>        -0.1037
      8 N1        -10.6271    6.9664    1.1933 N.pl3     1 <0>        -0.3039
      9 C8         -9.4455    7.6438    1.1499 C.2       1 <0>         0.3582
     10 C9         -9.7637    9.0106    1.2147 C.2       1 <0>        -0.3463
     11 C10       -11.1680    9.1068    1.2972 C.2       1 <0>         0.1437
     12 N2        -11.6655    7.9015    1.2839 N.2       1 <0>        -0.2642
     13 C11        -8.7088    9.9571    1.1876 C.2       1 <0>         0.5862
     14 O1         -8.9398   11.1522    1.2417 O.2       1 <0>        -0.5127
     15 N3         -7.4397    9.4991    1.1051 N.am      1 <0>        -0.6293
     16 H1         -6.7002   10.1266    1.0885 H         1 <0>         0.4273
     17 C12        -7.1941    8.1580    1.0397 C.2       1 <0>         0.3914
     18 N4         -8.1626    7.2692    1.0642 N.2       1 <0>        -0.5415
     19 S1         -5.5265    7.6003    0.9260 S.3       1 <0>         0.1101
     20 C13        -5.7960    5.8110    0.8800 C.3       1 <0>        -0.1500
     21 C14        -4.4681    5.1054    0.7805 C.2       1 <0>         0.5325
     22 O2         -3.4406    5.7490    0.7442 O.2       1 <0>        -0.5041
     23 N5         -4.4223    3.7593    0.7318 N.am      1 <0>        -0.6610
     24 C15        -3.1975    3.1067    0.5421 C.ar      1 <0>         0.1234
     25 C16        -3.1430    1.9346   -0.2007 C.ar      1 <0>        -0.1199
     26 C17        -1.9359    1.2919   -0.3884 C.ar      1 <0>        -0.1022
     27 C18        -0.7760    1.8172    0.1658 C.ar      1 <0>         0.1319
     28 C19        -0.8314    2.9860    0.9137 C.ar      1 <0>        -0.1258
     29 C20        -2.0376    3.6320    1.0963 C.ar      1 <0>        -0.0982
     30 N6          0.4490    1.1651   -0.0248 N.am      1 <0>        -0.6745
     31 C21         0.7034    0.5358   -1.1892 C.2       1 <0>         0.5107
     32 O3         -0.1567    0.4663   -2.0416 O.2       1 <0>        -0.5266
     33 C22         2.0565   -0.0815   -1.4321 C.3       1 <0>        -0.1707
     34 H2        -11.9062    1.0569    0.2178 H         1 <0>         0.0749
     35 H3        -10.2627    0.8611    0.8725 H         1 <0>         0.0697
     36 H4        -11.6528    0.9795    1.9779 H         1 <0>         0.0698
     37 H5        -12.7230    3.1138    2.4046 H         1 <0>         0.1340
     38 H6        -12.4636    5.5601    2.4773 H         1 <0>         0.1350
     39 H7         -9.1312    5.2767   -0.1874 H         1 <0>         0.1328
     40 H8         -9.3925    2.8301   -0.2452 H         1 <0>         0.1337
     41 H9        -11.7355   10.0235    1.3607 H         1 <0>         0.2059
     42 H10        -6.4078    5.5579    0.0141 H         1 <0>         0.1372
     43 H11        -6.3070    5.4971    1.7902 H         1 <0>         0.1384
     44 H12        -5.2374    3.2425    0.8282 H         1 <0>         0.4156
     45 H13        -4.0451    1.5260   -0.6317 H         1 <0>         0.1311
     46 H14        -1.8934    0.3807   -0.9667 H         1 <0>         0.1440
     47 H15         0.0700    3.3921    1.3484 H         1 <0>         0.1311
     48 H16        -2.0799    4.5436    1.6739 H         1 <0>         0.1443
     49 H17         1.1125    1.1630    0.6827 H         1 <0>         0.4127
     50 H18         2.6915    0.0807   -0.5611 H         1 <0>         0.0791
     51 H19         1.9421   -1.1517   -1.6040 H         1 <0>         0.0998
     52 H20         2.5147    0.3801   -2.3068 H         1 <0>         0.1004
@<TRIPOS>BOND
     1    1    2 1
     2    1   34 1
     3    1   35 1
     4    1   36 1
     5    2    7 ar
     6    2    3 ar
     7    3    4 ar
     8    3   37 1
     9    4    5 ar
    10    4   38 1
    11    5    6 ar
    12    5    8 1
    13    6    7 ar
    14    6   39 1
    15    7   40 1
    16    8   12 1
    17    8    9 1
    18    9   18 1
    19    9   10 2
    20   10   11 1
    21   10   13 1
    22   11   12 2
    23   11   41 1
    24   13   14 2
    25   13   15 am
    26   15   16 1
    27   15   17 1
    28   17   18 2
    29   17   19 1
    30   19   20 1
    31   20   21 1
    32   20   42 1
    33   20   43 1
    34   21   22 2
    35   21   23 am
    36   23   24 1
    37   23   44 1
    38   24   29 ar
    39   24   25 ar
    40   25   26 ar
    41   25   45 1
    42   26   27 ar
    43   26   46 1
    44   27   28 ar
    45   27   30 1
    46   28   29 ar
    47   28   47 1
    48   29   48 1
    49   30   31 am
    50   30   49 1
    51   31   32 2
    52   31   33 1
    53   33   50 1
    54   33   51 1
    55   33   52 1
@<TRIPOS>MOLECULE
ZINC15795210
   54    57     0     0     0
SMALL
USER_CHARGES
4-[[[(3R)-2,3-dihydro-1,4-benzodioxine-3-carbonyl]amino]carbamoyl]-N-(o-tolyl)benzenesulfonamide
@<TRIPOS>ATOM
      1 C1          1.6668  -11.6364    2.7577 C.3       1 <0>        -0.1155
      2 C2          0.6417  -11.3325    1.6956 C.ar      1 <0>        -0.1007
      3 C3         -0.6531  -11.0136    2.0556 C.ar      1 <0>        -0.0977
      4 C4         -1.5940  -10.7338    1.0818 C.ar      1 <0>        -0.1270
      5 C5         -1.2425  -10.7726   -0.2553 C.ar      1 <0>        -0.0947
      6 C6          0.0514  -11.0860   -0.6219 C.ar      1 <0>        -0.1714
      7 C7          0.9980  -11.3724    0.3538 C.ar      1 <0>         0.1475
      8 N1          2.3066  -11.6941   -0.0136 N.pl3     1 <0>        -1.0505
      9 S1          3.0049  -10.9555   -1.3210 S.o2      1 <0>         2.6903
     10 O1          2.1173  -11.1422   -2.4149 O.2       1 <0>        -0.9400
     11 O2          4.3584  -11.3866   -1.3561 O.2       1 <0>        -0.9425
     12 C8          3.0358   -9.2257   -0.9871 C.ar      1 <0>        -0.6509
     13 C9          4.1276   -8.6673   -0.3465 C.ar      1 <0>        -0.0205
     14 C10         4.1585   -7.3135   -0.0829 C.ar      1 <0>        -0.0736
     15 C11         3.0850   -6.5069   -0.4636 C.ar      1 <0>        -0.0705
     16 C12         1.9841   -7.0775   -1.1044 C.ar      1 <0>        -0.1056
     17 C13         1.9683   -8.4317   -1.3672 C.ar      1 <0>        -0.0176
     18 C14         3.1111   -5.0554   -0.1838 C.2       1 <0>         0.5604
     19 O3          4.0689   -4.5620    0.3789 O.2       1 <0>        -0.5199
     20 N2          2.0729   -4.2792   -0.5527 N.am      1 <0>        -0.5124
     21 N3          2.0976   -2.9037   -0.2876 N.am      1 <0>        -0.5158
     22 C15         1.0594   -2.1275   -0.6565 C.2       1 <0>         0.5272
     23 O4          0.1037   -2.6198   -1.2180 O.2       1 <0>        -0.4999
     24 C16         1.0860   -0.6480   -0.3714 C.3       1 <0>         0.0481
     25 H1          1.2658   -0.4816    0.6907 H         1 <0>         0.1207
     26 C17         2.1963    0.0187   -1.1948 C.3       1 <0>         0.0326
     27 O5          2.1846    1.4218   -0.9096 O.3       1 <0>        -0.2958
     28 C18         0.9705    2.0370   -0.9162 C.ar      1 <0>         0.0441
     29 C19         0.9085    3.4197   -1.0066 C.ar      1 <0>        -0.1095
     30 C20        -0.3166    4.0590   -1.0111 C.ar      1 <0>        -0.1119
     31 C21        -1.4836    3.3226   -0.9254 C.ar      1 <0>        -0.1112
     32 C22        -1.4291    1.9443   -0.8414 C.ar      1 <0>        -0.1073
     33 C23        -0.2026    1.2966   -0.8325 C.ar      1 <0>         0.0495
     34 O6         -0.1648   -0.0613   -0.7471 O.3       1 <0>        -0.2779
     35 H2          2.1692  -10.7149    3.0520 H         1 <0>         0.0738
     36 H3          1.1725  -12.0737    3.6252 H         1 <0>         0.0724
     37 H4          2.4001  -12.3403    2.3641 H         1 <0>         0.0640
     38 H5         -0.9308  -10.9824    3.0988 H         1 <0>         0.1278
     39 H6         -2.6055  -10.4840    1.3660 H         1 <0>         0.1265
     40 H7         -1.9798  -10.5531   -1.0134 H         1 <0>         0.1312
     41 H8          0.3262  -11.1118   -1.6660 H         1 <0>         0.1609
     42 H9          2.8064  -12.3502    0.4970 H         1 <0>         0.4281
     43 H10         4.9576   -9.2926   -0.0524 H         1 <0>         0.1531
     44 H11         5.0117   -6.8788    0.4166 H         1 <0>         0.1526
     45 H12         1.1482   -6.4595   -1.3975 H         1 <0>         0.1395
     46 H13         1.1190   -8.8738   -1.8669 H         1 <0>         0.1515
     47 H14         1.3085   -4.6729   -1.0018 H         1 <0>         0.4354
     48 H15         2.8620   -2.5100    0.1614 H         1 <0>         0.4364
     49 H16         3.1625   -0.4043   -0.9197 H         1 <0>         0.1298
     50 H17         2.0131   -0.1420   -2.2572 H         1 <0>         0.0891
     51 H18         1.8186    3.9972   -1.0739 H         1 <0>         0.1378
     52 H19        -0.3626    5.1357   -1.0821 H         1 <0>         0.1357
     53 H20        -2.4396    3.8251   -0.9288 H         1 <0>         0.1361
     54 H21        -2.3423    1.3711   -0.7787 H         1 <0>         0.1382
@<TRIPOS>BOND
     1    1    2 1
     2    1   35 1
     3    1   36 1
     4    1   37 1
     5    2    7 ar
     6    2    3 ar
     7    3    4 ar
     8    3   38 1
     9    4    5 ar
    10    4   39 1
    11    5    6 ar
    12    5   40 1
    13    6    7 ar
    14    6   41 1
    15    7    8 1
    16    8    9 1
    17    8   42 1
    18    9   10 2
    19    9   11 2
    20    9   12 1
    21   12   17 ar
    22   12   13 ar
    23   13   14 ar
    24   13   43 1
    25   14   15 ar
    26   14   44 1
    27   15   16 ar
    28   15   18 1
    29   16   17 ar
    30   16   45 1
    31   17   46 1
    32   18   19 2
    33   18   20 am
    34   20   21 1
    35   20   47 1
    36   21   22 am
    37   21   48 1
    38   22   23 2
    39   22   24 1
    40   24   25 1
    41   24   34 1
    42   24   26 1
    43   26   27 1
    44   26   49 1
    45   26   50 1
    46   27   28 1
    47   28   33 ar
    48   28   29 ar
    49   29   30 ar
    50   29   51 1
    51   30   31 ar
    52   30   52 1
    53   31   32 ar
    54   31   53 1
    55   32   33 ar
    56   32   54 1
    57   33   34 1
@<TRIPOS>MOLECULE
ZINC21986103
   61    65     0     0     0
SMALL
USER_CHARGES
(7S,9S)-9-acetyl-6,9,11-trihydroxy-4-methoxy-7-[(2R)-tetrahydropyran-2-yl]oxy-8,10-dihydro-7H-tetracene-5,12-dione
@<TRIPOS>ATOM
      1 C1          4.0956   11.3740    2.4246 C.3       1 <0>        -0.2014
      2 C2          3.4827   10.3959    1.4557 C.2       1 <0>         0.3715
      3 O1          2.9962    9.3680    1.8619 O.2       1 <0>        -0.4313
      4 C3          3.4771   10.7005   -0.0202 C.3       1 <0>         0.1053
      5 C4          2.3406    9.9390   -0.6984 C.3       1 <0>        -0.0928
      6 C5          2.6159    8.4572   -0.6939 C.ar      1 <0>        -0.0305
      7 C6          3.8694    7.9400   -0.4837 C.ar      1 <0>        -0.0631
      8 C7          4.0698    6.5534   -0.5065 C.ar      1 <0>         0.2327
      9 C8          3.0028    5.6873   -0.7354 C.ar      1 <0>        -0.2203
     10 C9          1.7142    6.2181   -0.9458 C.ar      1 <0>        -0.2028
     11 C10         1.5320    7.5997   -0.9233 C.ar      1 <0>         0.2010
     12 O2          0.2953    8.1183   -1.1252 O.3       1 <0>        -0.5091
     13 C11         0.5752    5.3159   -1.1870 C.2       1 <0>         0.4587
     14 O3         -0.5365    5.7734   -1.3691 O.2       1 <0>        -0.4498
     15 C12         0.7867    3.8534   -1.2078 C.ar      1 <0>        -0.0770
     16 C13        -0.2829    2.9932   -1.4335 C.ar      1 <0>        -0.1039
     17 C14        -0.0786    1.6232   -1.4561 C.ar      1 <0>        -0.0550
     18 C15         1.1801    1.0981   -1.2448 C.ar      1 <0>        -0.1891
     19 C16         2.2643    1.9402   -1.0177 C.ar      1 <0>         0.1808
     20 C17         2.0740    3.3253   -0.9978 C.ar      1 <0>        -0.1539
     21 C18         3.2135    4.2291   -0.7579 C.2       1 <0>         0.4554
     22 O4          4.3263    3.7718   -0.5792 O.2       1 <0>        -0.4367
     23 O5          3.5001    1.4197   -0.8160 O.3       1 <0>        -0.2820
     24 C19         3.6179   -0.0040   -0.8499 C.3       1 <0>         0.0151
     25 O6          5.3128    6.0502   -0.3036 O.3       1 <0>        -0.4799
     26 C20         5.0710    8.8093   -0.2150 C.3       1 <0>         0.1417
     27 H1          5.3329    8.7626    0.8523 H         1 <0>         0.0877
     28 C21         4.8017   10.2490   -0.6468 C.3       1 <0>        -0.1672
     29 O7          6.1916    8.3014   -0.9419 O.3       1 <0>        -0.3375
     30 C22         7.4570    8.6472   -0.3752 C.3       1 <0>         0.2575
     31 H2          7.4311    9.7208   -0.1370 H         1 <0>         0.0479
     32 C23         8.5739    8.2716   -1.3526 C.3       1 <0>        -0.1348
     33 C24         9.9292    8.5897   -0.7137 C.3       1 <0>        -0.1210
     34 C25        10.0434    7.8380    0.6161 C.3       1 <0>        -0.1606
     35 C26         8.8698    8.2303    1.5174 C.3       1 <0>         0.0693
     36 O8          7.6401    7.9369    0.8512 O.3       1 <0>        -0.3980
     37 O9          3.3033   12.1046   -0.2213 O.3       1 <0>        -0.5676
     38 H3          4.4836   12.2427    1.8725 H         1 <0>         0.0917
     39 H4          4.9193   10.8861    2.9664 H         1 <0>         0.0910
     40 H5          3.3313   11.7071    3.1421 H         1 <0>         0.0964
     41 H6          1.4002   10.1277   -0.1599 H         1 <0>         0.1005
     42 H7          2.2414   10.2792   -1.7398 H         1 <0>         0.0984
     43 H8         -0.5589    7.4492   -1.3057 H         1 <0>         0.4432
     44 H9         -1.2726    3.3938   -1.5957 H         1 <0>         0.1481
     45 H10        -0.9121    0.9604   -1.6361 H         1 <0>         0.1437
     46 H11         1.3252    0.0280   -1.2602 H         1 <0>         0.1449
     47 H12         4.6653   -0.2895   -0.6729 H         1 <0>         0.1100
     48 H13         3.2981   -0.3750   -1.8348 H         1 <0>         0.0613
     49 H14         2.9809   -0.4433   -0.0680 H         1 <0>         0.0613
     50 H15         5.4753    4.9624   -0.3205 H         1 <0>         0.4372
     51 H16         4.7271   10.3062   -1.7428 H         1 <0>         0.0970
     52 H17         5.6138   10.9048   -0.2998 H         1 <0>         0.0900
     53 H18         8.5159    7.1970   -1.5802 H         1 <0>         0.0857
     54 H19         8.4584    8.8498   -2.2812 H         1 <0>         0.0801
     55 H20        10.7368    8.2719   -1.3896 H         1 <0>         0.0761
     56 H21        10.0053    9.6724   -0.5351 H         1 <0>         0.0654
     57 H22        10.0188    6.7545    0.4281 H         1 <0>         0.0759
     58 H23        10.9912    8.1035    1.1072 H         1 <0>         0.0771
     59 H24         8.9230    7.6611    2.4572 H         1 <0>         0.0977
     60 H25         8.9203    9.3069    1.7374 H         1 <0>         0.0492
     61 H26         3.2741   12.5146   -1.2416 H         1 <0>         0.4186
@<TRIPOS>BOND
     1    1    2 1
     2    1   38 1
     3    1   39 1
     4    1   40 1
     5    2    3 2
     6    2    4 1
     7    4   28 1
     8    4    5 1
     9    4   37 1
    10    5    6 1
    11    5   41 1
    12    5   42 1
    13    6   11 ar
    14    6    7 ar
    15    7    8 ar
    16    7   26 1
    17    8    9 ar
    18    8   25 1
    19    9   21 1
    20    9   10 ar
    21   10   11 ar
    22   10   13 1
    23   11   12 1
    24   12   43 1
    25   13   14 2
    26   13   15 1
    27   15   20 ar
    28   15   16 ar
    29   16   17 ar
    30   16   44 1
    31   17   18 ar
    32   17   45 1
    33   18   19 ar
    34   18   46 1
    35   19   20 ar
    36   19   23 1
    37   20   21 1
    38   21   22 2
    39   23   24 1
    40   24   47 1
    41   24   48 1
    42   24   49 1
    43   25   50 1
    44   26   27 1
    45   26   28 1
    46   26   29 1
    47   28   51 1
    48   28   52 1
    49   29   30 1
    50   30   31 1
    51   30   36 1
    52   30   32 1
    53   32   33 1
    54   32   53 1
    55   32   54 1
    56   33   34 1
    57   33   55 1
    58   33   56 1
    59   34   35 1
    60   34   57 1
    61   34   58 1
    62   35   36 1
    63   35   59 1
    64   35   60 1
    65   37   61 1
@<TRIPOS>MOLECULE
ZINC39518656
   59    64     0     0     0
SMALL
USER_CHARGES

@<TRIPOS>ATOM
      1 C1          2.4414   -1.9433    2.1647 C.ar      1 <0>        -0.1132
      2 C2          3.6605   -1.2692    2.2115 C.ar      1 <0>        -0.0881
      3 C3          4.2144   -0.7439    1.0849 C.ar      1 <0>        -0.1357
      4 C4          3.5502   -0.8818   -0.1460 C.ar      1 <0>        -0.0244
      5 C5          2.3107   -1.5678   -0.1936 C.ar      1 <0>        -0.0556
      6 C6          1.7698   -2.0963    0.9911 C.ar      1 <0>        -0.0944
      7 C7          1.6468   -1.7061   -1.4242 C.ar      1 <0>        -0.0738
      8 C8          2.2011   -1.1810   -2.5512 C.ar      1 <0>        -0.1294
      9 C9          3.4197   -0.5071   -2.5044 C.ar      1 <0>        -0.0700
     10 C10         4.0910   -0.3534   -1.3302 C.ar      1 <0>        -0.1402
     11 C11         5.4074    0.3797   -1.3006 C.3       1 <0>         0.4260
     12 H1          5.5295    0.8943   -0.3475 H         1 <0>         0.1151
     13 N1          5.4771    1.3409   -2.4082 N.pl3     1 <0>        -0.7180
     14 C12         6.5638    0.9690   -3.2091 C.ar      1 <0>         0.1343
     15 C13         7.0703    1.5335   -4.3741 C.ar      1 <0>        -0.0521
     16 C14         8.1785    0.9454   -4.9676 C.ar      1 <0>        -0.1167
     17 C15         8.7394   -0.1738   -4.3868 C.ar      1 <0>         0.0896
     18 N2          8.2387   -0.6895   -3.2811 N.ar      1 <0>        -0.4603
     19 C16         7.1806   -0.1622   -2.6771 C.ar      1 <0>         0.3693
     20 N3          6.5149   -0.5591   -1.5148 N.pl3     1 <0>        -0.5768
     21 C17         6.8579   -1.7024   -0.6654 C.3       1 <0>         0.1438
     22 C18         8.3062   -1.5676   -0.1896 C.3       1 <0>        -0.1434
     23 C19         8.6504   -2.7466    0.7261 C.3       1 <0>         0.0580
     24 N4          8.3636   -3.9987    0.0129 N.am      1 <0>        -0.6024
     25 C20         7.0265   -4.1926   -0.5644 C.3       1 <0>         0.1112
     26 C21         6.7004   -2.9974   -1.4656 C.3       1 <0>        -0.1412
     27 C22         9.3092   -4.9512   -0.1099 C.2       1 <0>         0.5809
     28 O1          9.0975   -5.9327   -0.7933 O.2       1 <0>        -0.5281
     29 C23        10.6109   -4.8005    0.5910 C.2       1 <0>         0.1798
     30 N5         10.7884   -3.8085    1.4744 N.2       1 <0>        -0.6153
     31 C24        11.9287   -3.6528    2.1075 C.2       1 <0>         0.6132
     32 O2         12.0601   -2.6396    2.9884 O.3       1 <0>        -0.6615
     33 N6         12.9783   -4.4884    1.8962 N.am      1 <0>        -0.6578
     34 C25        12.8657   -5.5082    1.0191 C.2       1 <0>         0.5418
     35 O3         13.8015   -6.2644    0.8216 O.2       1 <0>        -0.5734
     36 C26        11.6405   -5.6854    0.3386 C.2       1 <0>        -0.3418
     37 H2          2.0257   -2.3543    3.0728 H         1 <0>         0.1301
     38 H3          4.1729   -1.1618    3.1561 H         1 <0>         0.1312
     39 H4          5.1593   -0.2234    1.1365 H         1 <0>         0.1251
     40 H5          0.8262   -2.6213    0.9700 H         1 <0>         0.1326
     41 H6          0.7019   -2.2265   -1.4757 H         1 <0>         0.1337
     42 H7          1.6888   -1.2887   -3.4958 H         1 <0>         0.1287
     43 H8          3.8378   -0.1003   -3.4133 H         1 <0>         0.1208
     44 H9          4.8819    2.0921   -2.5575 H         1 <0>         0.4480
     45 H10         6.6119    2.4101   -4.8074 H         1 <0>         0.1676
     46 H11         8.5967    1.3586   -5.8736 H         1 <0>         0.1813
     47 H12         9.6018   -0.6347   -4.8451 H         1 <0>         0.2048
     48 H13         6.1929   -1.7258    0.1979 H         1 <0>         0.1256
     49 H14         8.9738   -1.5691   -1.0512 H         1 <0>         0.0515
     50 H15         8.4231   -0.6337    0.3603 H         1 <0>         0.0918
     51 H16         9.7078   -2.7092    0.9880 H         1 <0>         0.1965
     52 H17         8.0455   -2.6949    1.6313 H         1 <0>         0.0697
     53 H18         7.0124   -5.1093   -1.1539 H         1 <0>         0.1033
     54 H19         6.2891   -4.2588    0.2356 H         1 <0>         0.0752
     55 H20         5.6745   -3.0812   -1.8240 H         1 <0>         0.0874
     56 H21         7.3832   -2.9854   -2.3151 H         1 <0>         0.0579
     57 H22        13.8101   -4.3520    2.3762 H         1 <0>         0.4042
     58 H23        11.5131   -6.4931   -0.3669 H         1 <0>         0.1425
     59 H24         8.6556   -1.4772   -2.8980 H         1 <0>         0.4410
@<TRIPOS>BOND
     1    1    6 ar
     2    1    2 ar
     3    1   37 1
     4    2    3 ar
     5    2   38 1
     6    3    4 ar
     7    3   39 1
     8    4   10 ar
     9    4    5 ar
    10    5    6 ar
    11    5    7 ar
    12    6   40 1
    13    7    8 ar
    14    7   41 1
    15    8    9 ar
    16    8   42 1
    17    9   10 ar
    18    9   43 1
    19   10   11 1
    20   11   12 1
    21   11   20 1
    22   11   13 1
    23   13   14 1
    24   13   44 1
    25   14   19 ar
    26   14   15 ar
    27   15   16 ar
    28   15   45 1
    29   16   17 ar
    30   16   46 1
    31   17   18 ar
    32   17   47 1
    33   18   19 ar
    34   18   59 1
    35   19   20 1
    36   20   21 1
    37   21   26 1
    38   21   22 1
    39   21   48 1
    40   22   23 1
    41   22   49 1
    42   22   50 1
    43   23   24 1
    44   23   51 1
    45   23   52 1
    46   24   25 1
    47   24   27 am
    48   25   26 1
    49   25   53 1
    50   25   54 1
    51   26   55 1
    52   26   56 1
    53   27   28 2
    54   27   29 1
    55   29   36 2
    56   29   30 1
    57   30   31 2
    58   31   32 1
    59   31   33 1
    60   33   57 1
    61   33   34 am
    62   34   35 2
    63   34   36 1
    64   36   58 1
@<TRIPOS>MOLECULE
ZINC15304292
   56    59     0     0     0
SMALL
USER_CHARGES

@<TRIPOS>ATOM
      1 C1          0.0391    1.7240    0.3930 C.3       1 <0>        -0.1725
      2 C2         -0.0012    0.1990    0.5094 C.3       1 <0>        -0.0647
      3 H1         -1.0289   -0.1331    0.6568 H         1 <0>         0.1009
      4 C3          0.5700   -0.4324   -0.7592 C.3       1 <0>        -0.1108
      5 C4          2.0067    0.0213   -0.9604 C.2       1 <0>         0.2814
      6 C5          2.7975    0.2624    0.0982 C.2       1 <0>        -0.3111
      7 C6          4.2437    0.6941    0.0443 C.3       1 <0>         0.2855
      8 H2          4.3814    1.5282    0.7323 H         1 <0>         0.1035
      9 N1          4.6984    1.1019   -1.2683 N.pl3     1 <0>        -0.7654
     10 C7          4.7547    0.1943   -2.3245 C.ar      1 <0>         0.1590
     11 C8          5.9604   -0.1726   -2.9006 C.ar      1 <0>        -0.1298
     12 C9          5.9707   -1.1121   -3.9169 C.ar      1 <0>        -0.1031
     13 C10         4.7897   -1.6836   -4.3542 C.ar      1 <0>        -0.1063
     14 C11         3.5816   -1.3066   -3.7924 C.ar      1 <0>        -0.1054
     15 C12         3.5684   -0.3528   -2.7898 C.ar      1 <0>         0.1083
     16 N2          2.3851    0.1468   -2.2576 N.pl3     1 <0>        -0.6800
     17 C13         5.1028   -0.4535    0.5090 C.ar      1 <0>        -0.0573
     18 C14         5.1254   -1.6338   -0.2106 C.ar      1 <0>        -0.0680
     19 C15         5.9117   -2.6894    0.2116 C.ar      1 <0>        -0.0456
     20 C16         6.6800   -2.5659    1.3581 C.ar      1 <0>         0.1416
     21 C17         6.6576   -1.3778    2.0822 C.ar      1 <0>         0.1034
     22 C18         5.8708   -0.3218    1.6509 C.ar      1 <0>        -0.1163
     23 O1          7.4098   -1.2517    3.2082 O.3       1 <0>        -0.2974
     24 C19         7.3371   -0.0037    3.9005 C.3       1 <0>         0.0214
     25 O2          7.4537   -3.6036    1.7751 O.3       1 <0>        -0.4603
     26 N3          5.9327   -3.9519   -0.5609 N.pl3     1 <0>         0.0393
     27 O3          5.2622   -4.0598   -1.5610 O.2       1 <0>        -0.1607
     28 O4          6.6205   -4.8751   -0.1916 O.3       1 <0>        -0.1389
     29 C20         2.2895    0.1295    1.4122 C.2       1 <0>         0.4120
     30 O5          3.0334    0.3353    2.3511 O.2       1 <0>        -0.4530
     31 C21         0.8660   -0.2553    1.6895 C.3       1 <0>        -0.1300
     32 H3          0.7949   -1.3373    1.8006 H         1 <0>         0.1402
     33 C22         0.3946    0.4184    2.9524 C.2       1 <0>         0.4789
     34 O6         -0.5392    1.1843    2.9162 O.2       1 <0>        -0.4939
     35 O7          1.0122    0.1677    4.1175 O.3       1 <0>        -0.3336
     36 C23         0.5125    0.8411    5.2746 C.3       1 <0>         0.0329
     37 H4          1.0688    2.0500    0.2458 H         1 <0>         0.0561
     38 H5         -0.5669    2.0398   -0.4561 H         1 <0>         0.0627
     39 H6         -0.3557    2.1686    1.3066 H         1 <0>         0.0899
     40 H7          0.5426   -1.5181   -0.6673 H         1 <0>         0.1033
     41 H8         -0.0295   -0.1275   -1.6170 H         1 <0>         0.0976
     42 H9          4.9680    2.0220   -1.4152 H         1 <0>         0.4034
     43 H10         6.8842    0.2710   -2.5597 H         1 <0>         0.1247
     44 H11         6.9070   -1.4006   -4.3715 H         1 <0>         0.1256
     45 H12         4.8098   -2.4269   -5.1376 H         1 <0>         0.1309
     46 H13         2.6589   -1.7525   -4.1333 H         1 <0>         0.1310
     47 H14         1.7865    0.6192   -2.8571 H         1 <0>         0.4103
     48 H15         4.5271   -1.7313   -1.1045 H         1 <0>         0.1535
     49 H16         5.8548    0.6028    2.2088 H         1 <0>         0.1511
     50 H17         7.9832   -0.0367    4.7778 H         1 <0>         0.1084
     51 H18         7.6637    0.7985    3.2387 H         1 <0>         0.0585
     52 H19         6.3091    0.1791    4.2131 H         1 <0>         0.0644
     53 H20         8.3500   -3.5966    1.4120 H         1 <0>         0.3995
     54 H21         0.5883    1.9187    5.1289 H         1 <0>         0.0608
     55 H22        -0.5310    0.5682    5.4316 H         1 <0>         0.0610
     56 H23         1.0992    0.5502    6.1460 H         1 <0>         0.1030
@<TRIPOS>BOND
     1    1    2 1
     2    1   37 1
     3    1   38 1
     4    1   39 1
     5    2    3 1
     6    2   31 1
     7    2    4 1
     8    4    5 1
     9    4   40 1
    10    4   41 1
    11    5   16 1
    12    5    6 2
    13    6    7 1
    14    6   29 1
    15    7    8 1
    16    7    9 1
    17    7   17 1
    18    9   10 1
    19    9   42 1
    20   10   15 ar
    21   10   11 ar
    22   11   12 ar
    23   11   43 1
    24   12   13 ar
    25   12   44 1
    26   13   14 ar
    27   13   45 1
    28   14   15 ar
    29   14   46 1
    30   15   16 1
    31   16   47 1
    32   17   22 ar
    33   17   18 ar
    34   18   19 ar
    35   18   48 1
    36   19   20 ar
    37   19   26 1
    38   20   21 ar
    39   20   25 1
    40   21   22 ar
    41   21   23 1
    42   22   49 1
    43   23   24 1
    44   24   50 1
    45   24   51 1
    46   24   52 1
    47   25   53 1
    48   26   27 2
    49   26   28 1
    50   29   30 2
    51   29   31 1
    52   31   32 1
    53   31   33 1
    54   33   34 2
    55   33   35 1
    56   35   36 1
    57   36   54 1
    58   36   55 1
    59   36   56 1
@<TRIPOS>MOLECULE
ZINC16363390
   29    30     0     0     0
SMALL
USER_CHARGES
2-[(Z)-[(4-amino-5-methyl-1,2,4-triazol-3-yl)hydrazono]methyl]-4-bromo-phenol
@<TRIPOS>ATOM
      1 C1         -2.3748    3.7134    0.5548 C.3       1 <0>        -0.0586
      2 C2         -1.5688    3.4072   -0.6812 C.2       1 <0>         0.2072
      3 N1         -2.0175    3.3611   -1.9041 N.2       1 <0>        -0.2726
      4 N2         -1.0620    3.0724   -2.7138 N.2       1 <0>        -0.2849
      5 C3          0.0583    2.9233   -2.0459 C.2       1 <0>         0.4068
      6 N3         -0.2322    3.1264   -0.7272 N.pl3     1 <0>        -0.3430
      7 N4          0.6347    3.0671    0.3268 N.3       1 <0>        -0.5830
      8 N5          1.2992    2.6147   -2.5777 N.pl3     1 <0>        -0.5593
      9 N6          1.4439    2.4340   -3.9594 N.2       1 <0>        -0.1775
     10 C4          2.5810    2.0399   -4.4471 C.2       1 <0>         0.1002
     11 C5          3.6349    1.5390   -3.5470 C.ar      1 <0>        -0.1213
     12 C6          3.2968    0.9809   -2.3121 C.ar      1 <0>        -0.0976
     13 C7          4.2883    0.5089   -1.4763 C.ar      1 <0>        -0.0983
     14 C8          5.6185    0.5965   -1.8525 C.ar      1 <0>        -0.0594
     15 C9          5.9653    1.1517   -3.0701 C.ar      1 <0>        -0.1286
     16 C10         4.9822    1.6253   -3.9229 C.ar      1 <0>         0.1584
     17 O1          5.3227    2.1717   -5.1192 O.3       1 <0>        -0.4863
     18 Br1         3.8298   -0.2532    0.1925 Br        1 <0>        -0.0343
     19 H1         -2.3629    4.7876    0.7394 H         1 <0>         0.0878
     20 H2         -3.4027    3.3810    0.4098 H         1 <0>         0.0951
     21 H3         -1.9418    3.1931    1.4091 H         1 <0>         0.0812
     22 H4          0.6752    2.1345    0.7097 H         1 <0>         0.3650
     23 H5          1.5529    3.3879    0.0583 H         1 <0>         0.3679
     24 H6          2.0682    2.5236   -1.9935 H         1 <0>         0.3958
     25 H7          2.7543    2.0791   -5.5124 H         1 <0>         0.2017
     26 H8          2.2610    0.9154   -2.0134 H         1 <0>         0.1405
     27 H9          6.3890    0.2287   -1.1911 H         1 <0>         0.1458
     28 H10         7.0046    1.2166   -3.3565 H         1 <0>         0.1492
     29 H11         5.4020    3.1353   -5.1030 H         1 <0>         0.4022
@<TRIPOS>BOND
     1    1    2 1
     2    1   19 1
     3    1   20 1
     4    1   21 1
     5    2    6 1
     6    2    3 2
     7    3    4 1
     8    4    5 2
     9    5    6 1
    10    5    8 1
    11    6    7 1
    12    7   22 1
    13    7   23 1
    14    8    9 1
    15    8   24 1
    16    9   10 2
    17   10   11 1
    18   10   25 1
    19   11   16 ar
    20   11   12 ar
    21   12   13 ar
    22   12   26 1
    23   13   14 ar
    24   13   18 1
    25   14   15 ar
    26   14   27 1
    27   15   16 ar
    28   15   28 1
    29   16   17 1
    30   17   29 1
@<TRIPOS>MOLECULE
ZINC36743543
   35    36     0     0     0
SMALL
USER_CHARGES

@<TRIPOS>ATOM
      1 C1          3.4785    0.4089    1.2421 C.3       1 <0>        -0.1173
      2 C2          2.6194   -0.5366    0.4427 C.ar      1 <0>        -0.0232
      3 C3          3.0348   -0.9597   -0.8069 C.ar      1 <0>        -0.1488
      4 C4          2.2492   -1.8269   -1.5439 C.ar      1 <0>        -0.0315
      5 C5          1.0435   -2.2764   -1.0349 C.ar      1 <0>        -0.1714
      6 C6          0.6205   -1.8574    0.2169 C.ar      1 <0>         0.2382
      7 C7          1.4157   -0.9866    0.9623 C.ar      1 <0>         0.0574
      8 N1          0.9962   -0.5637    2.2300 N.pl3     1 <0>        -1.0542
      9 S1          0.8571   -1.6591    3.4642 S.o2      1 <0>         2.7138
     10 O1          0.4388   -0.9294    4.6095 O.2       1 <0>        -0.9544
     11 O2          0.1186   -2.7588    2.9499 O.2       1 <0>        -0.9480
     12 C8          2.4766   -2.2592    3.8131 C.2       1 <0>        -0.8184
     13 C9          3.0610   -3.3444    3.2546 C.2       1 <0>         0.2290
     14 N2          4.2957   -3.4656    3.7856 N.pl3     1 <0>        -0.4608
     15 H1          4.9440   -4.1546    3.5713 H         1 <0>         0.4430
     16 N3          4.4760   -2.4204    4.7007 N.2       1 <0>        -0.2884
     17 C10         3.3875   -1.6945    4.7119 C.2       1 <0>         0.1663
     18 C11         3.1538   -0.4651    5.5515 C.3       1 <0>        -0.0915
     19 C12         2.4437   -4.2544    2.2243 C.3       1 <0>        -0.1367
     20 N4         -0.5993   -2.3105    0.7338 N.pl3     1 <0>        -0.8422
     21 Br1         2.8239   -2.3995   -3.2520 Br        1 <0>        -0.0458
     22 H2          4.1691   -0.1633    1.8617 H         1 <0>         0.0743
     23 H3          4.0435    1.0482    0.5637 H         1 <0>         0.0740
     24 H4          2.8445    1.0256    1.8791 H         1 <0>         0.0716
     25 H5          3.9750   -0.6115   -1.2082 H         1 <0>         0.1336
     26 H6          0.4320   -2.9534   -1.6130 H         1 <0>         0.1380
     27 H7          0.7872    0.3707    2.3850 H         1 <0>         0.4221
     28 H8          2.7177   -0.7553    6.5073 H         1 <0>         0.0934
     29 H9          4.1028    0.0426    5.7242 H         1 <0>         0.0831
     30 H10         2.4720    0.2067    5.0300 H         1 <0>         0.0860
     31 H11         2.5866   -3.8286    1.2311 H         1 <0>         0.0966
     32 H12         2.9206   -5.2334    2.2719 H         1 <0>         0.0831
     33 H13         1.3774   -4.3596    2.4246 H         1 <0>         0.1258
     34 H14        -1.0241   -3.0965    0.3561 H         1 <0>         0.4036
     35 H15        -1.0196   -1.8384    1.4696 H         1 <0>         0.3998
@<TRIPOS>BOND
     1    1    2 1
     2    1   22 1
     3    1   23 1
     4    1   24 1
     5    2    7 ar
     6    2    3 ar
     7    3    4 ar
     8    3   25 1
     9    4    5 ar
    10    4   21 1
    11    5    6 ar
    12    5   26 1
    13    6    7 ar
    14    6   20 1
    15    7    8 1
    16    8    9 1
    17    8   27 1
    18    9   10 2
    19    9   11 2
    20    9   12 1
    21   12   17 1
    22   12   13 2
    23   13   14 1
    24   13   19 1
    25   14   15 1
    26   14   16 1
    27   16   17 2
    28   17   18 1
    29   18   28 1
    30   18   29 1
    31   18   30 1
    32   19   31 1
    33   19   32 1
    34   19   33 1
    35   20   34 1
    36   20   35 1
@<TRIPOS>MOLECULE
ZINC40381726
   29    30     0     0     0
SMALL
USER_CHARGES

@<TRIPOS>ATOM
      1 C1         -0.0230    1.3685    0.0392 C.ar      1 <0>        -0.1905
      2 C2          1.1610    2.0825    0.0242 C.ar      1 <0>         0.0337
      3 C3          2.3708    1.4170   -0.0007 C.ar      1 <0>        -0.7269
      4 C4          2.3989    0.0281   -0.0107 C.ar      1 <0>         0.2810
      5 C5          1.2095   -0.6880    0.0044 C.ar      1 <0>        -0.1907
      6 C6          0.0003   -0.0162    0.0293 C.ar      1 <0>         0.1878
      7 F1         -1.1581   -0.7112    0.0439 F         1 <0>        -0.1200
      8 N1          3.6229   -0.6476   -0.0363 N.am      1 <0>        -0.6772
      9 C7          3.6927   -1.8968   -0.5374 C.2       1 <0>         0.6014
     10 O1          2.7142   -2.3989   -1.0586 O.2       1 <0>        -0.4857
     11 C8          4.9475   -2.6509   -0.4546 C.2       1 <0>        -0.0589
     12 C9          5.1636   -3.9281   -0.9277 C.2       1 <0>        -0.0566
     13 C10         6.4928   -4.2541   -0.6391 C.2       1 <0>        -0.1848
     14 C11         7.0532   -3.1935   -0.0086 C.2       1 <0>         0.0818
     15 N2          6.1258   -2.2105    0.1042 N.pl3     1 <0>        -0.5314
     16 H1          6.2685   -1.3424    0.5128 H         1 <0>         0.4228
     17 Br1         7.3546   -5.8853   -1.0541 Br        1 <0>        -0.0142
     18 S1          3.8782    2.3292   -0.0204 S.o2      1 <0>         2.6967
     19 O2          4.6718    1.7796   -1.0631 O.2       1 <0>        -0.9537
     20 O3          3.5215    3.7041    0.0217 O.2       1 <0>        -0.9480
     21 N3          4.6674    2.0013    1.3981 N.pl3     1 <0>        -1.2560
     22 H2         -0.9676    1.8915    0.0632 H         1 <0>         0.1527
     23 H3          1.1396    3.1623    0.0316 H         1 <0>         0.1628
     24 H4          1.2282   -1.7678   -0.0033 H         1 <0>         0.1706
     25 H5          4.4217   -0.2172    0.3065 H         1 <0>         0.4064
     26 H6          4.4423   -4.5580   -1.4270 H         1 <0>         0.1633
     27 H7          8.0729   -3.1386    0.3430 H         1 <0>         0.1886
     28 H8          5.6367    2.0196    1.4292 H         1 <0>         0.4237
     29 H9          4.1603    1.7910    2.1978 H         1 <0>         0.4212
@<TRIPOS>BOND
     1    1    6 ar
     2    1    2 ar
     3    1   22 1
     4    2    3 ar
     5    2   23 1
     6    3    4 ar
     7    3   18 1
     8    4    5 ar
     9    4    8 1
    10    5    6 ar
    11    5   24 1
    12    6    7 1
    13    8    9 am
    14    8   25 1
    15    9   10 2
    16    9   11 1
    17   11   15 1
    18   11   12 2
    19   12   13 1
    20   12   26 1
    21   13   14 2
    22   13   17 1
    23   14   15 1
    24   14   27 1
    25   15   16 1
    26   18   19 2
    27   18   20 2
    28   18   21 1
    29   21   28 1
    30   21   29 1
@<TRIPOS>MOLECULE
ZINC05610008
   36    39     0     0     0
SMALL
USER_CHARGES

@<TRIPOS>ATOM
      1 C1         -0.0187    1.5258    0.0104 C.3       1 <0>        -0.1531
      2 C2          0.0021   -0.0041    0.0020 C.3       1 <0>        -0.0721
      3 C3          0.7309   -0.5033    1.2229 C.2       1 <0>         0.1550
      4 C4          0.1983   -0.6971    2.4385 C.2       1 <0>        -0.2631
      5 C5          1.2192   -1.1716    3.2941 C.2       1 <0>         0.2815
      6 N1          2.3178   -1.2529    2.6019 N.2       1 <0>        -0.2484
      7 N2          2.0391   -0.8423    1.2887 N.pl3     1 <0>        -0.4536
      8 H1          2.6742   -0.8064    0.5564 H         1 <0>         0.4535
      9 O1          0.9838   -1.4633    4.6011 O.3       1 <0>        -0.2067
     10 C6         -0.2994   -1.5420    5.0060 C.2       1 <0>         0.4648
     11 C7         -1.3566   -1.1115    4.2821 C.2       1 <0>        -0.2643
     12 C8         -1.2084   -0.4848    2.9237 C.3       1 <0>         0.1294
     13 C9         -1.5595    0.9681    2.9530 C.ar      1 <0>        -0.1033
     14 C10        -1.0182    2.0261    3.6511 C.ar      1 <0>        -0.0769
     15 C11        -1.5916    3.2783    3.4452 C.ar      1 <0>         0.0756
     16 C12        -2.6551    3.4479    2.5791 C.ar      1 <0>        -0.1164
     17 C13        -3.2039    2.3874    1.8754 C.ar      1 <0>        -0.1089
     18 C14        -2.6378    1.1273    2.0738 C.ar      1 <0>         0.1415
     19 N3         -2.9827   -0.0899    1.5100 N.am      1 <0>        -0.6604
     20 C15        -2.1963   -1.0934    1.9533 C.2       1 <0>         0.5391
     21 O2         -2.2684   -2.2614    1.6344 O.2       1 <0>        -0.4717
     22 F1         -1.0985    4.3488    4.1055 F         1 <0>        -0.1371
     23 C16        -2.6709   -1.2585    4.8312 C.1       1 <0>         0.2652
     24 N4         -3.7135   -1.3751    5.2669 N.1       1 <0>        -0.4273
     25 N5         -0.5495   -2.0970    6.2363 N.pl3     1 <0>        -0.8218
     26 H2          1.0039    1.9031    0.0027 H         1 <0>         0.0614
     27 H3         -0.5459    1.8868   -0.8726 H         1 <0>         0.0712
     28 H4         -0.5289    1.8773    0.9072 H         1 <0>         0.0677
     29 H5         -1.0205   -0.3814    0.0098 H         1 <0>         0.0890
     30 H6          0.5123   -0.3556   -0.8948 H         1 <0>         0.0892
     31 H7         -0.1873    1.8901    4.3275 H         1 <0>         0.1469
     32 H8         -3.0711    4.4357    2.4471 H         1 <0>         0.1426
     33 H9         -4.0356    2.5303    1.2014 H         1 <0>         0.1475
     34 H10        -3.7038   -0.2072    0.8719 H         1 <0>         0.4189
     35 H11         0.1855   -2.4168    6.7826 H         1 <0>         0.4160
     36 H12        -1.4612   -2.1695    6.5593 H         1 <0>         0.4291
@<TRIPOS>BOND
     1    1    2 1
     2    1   26 1
     3    1   27 1
     4    1   28 1
     5    2    3 1
     6    2   29 1
     7    2   30 1
     8    3    7 1
     9    3    4 2
    10    4   12 1
    11    4    5 1
    12    5    6 2
    13    5    9 1
    14    6    7 1
    15    7    8 1
    16    9   10 1
    17   10   11 2
    18   10   25 1
    19   11   12 1
    20   11   23 1
    21   12   20 1
    22   12   13 1
    23   13   18 ar
    24   13   14 ar
    25   14   15 ar
    26   14   31 1
    27   15   16 ar
    28   15   22 1
    29   16   17 ar
    30   16   32 1
    31   17   18 ar
    32   17   33 1
    33   18   19 1
    34   19   20 am
    35   19   34 1
    36   20   21 2
    37   23   24 3
    38   25   35 1
    39   25   36 1
@<TRIPOS>MOLECULE
ZINC56875628
   36    38     0     0     0
SMALL
USER_CHARGES

@<TRIPOS>ATOM
      1 C1         -0.0187    1.5258    0.0104 C.3       1 <0>        -0.1607
      2 C2          0.0021   -0.0041    0.0020 C.3       1 <0>         0.1903
      3 H1         -1.0205   -0.3814    0.0098 H         1 <0>         0.1030
      4 C3          0.7074   -0.4901   -1.2379 C.ar      1 <0>        -0.0844
      5 C4          2.0911   -0.5096   -1.2808 C.ar      1 <0>        -0.1042
      6 C5          2.7465   -0.9532   -2.4126 C.ar      1 <0>        -0.0967
      7 C6          2.0155   -1.3809   -3.5105 C.ar      1 <0>         0.0926
      8 C7          0.6201   -1.3613   -3.4672 C.ar      1 <0>         0.0953
      9 C8         -0.0291   -0.9194   -2.3243 C.ar      1 <0>        -0.0896
     10 N1          0.1724   -1.8414   -4.6956 N.am      1 <0>        -0.6414
     11 H2         -0.7549   -1.9433   -4.9615 H         1 <0>         0.4375
     12 C9          1.2460   -2.1393   -5.4514 C.2       1 <0>         0.6844
     13 O1          1.2046   -2.5823   -6.5840 O.2       1 <0>        -0.5507
     14 N2          2.3725   -1.8723   -4.7639 N.am      1 <0>        -0.6418
     15 H3          3.2782   -2.0004   -5.0866 H         1 <0>         0.4373
     16 N3          0.7106   -0.4894    1.1889 N.am      1 <0>        -0.7207
     17 C10         0.0512   -0.6335    2.3554 C.2       1 <0>         0.5850
     18 O2         -1.1319   -0.3606    2.4228 O.2       1 <0>        -0.5368
     19 C11         0.7644   -1.1219    3.5501 C.2       1 <0>        -0.2532
     20 C12         2.1436   -1.4357    3.4791 C.2       1 <0>         0.0152
     21 C13         2.7764   -1.8844    4.5964 C.2       1 <0>        -0.1660
     22 C14         2.0496   -2.0267    5.7948 C.2       1 <0>         0.5243
     23 O3          2.6120   -2.4282    6.7998 O.2       1 <0>        -0.5094
     24 N4          0.7397   -1.7225    5.8389 N.am      1 <0>        -0.5906
     25 H4          0.2535   -1.8259    6.6719 H         1 <0>         0.4305
     26 C15         0.0945   -1.2714    4.7468 C.2       1 <0>         0.2259
     27 Cl1         4.4662   -2.2791    4.5460 Cl        1 <0>        -0.0192
     28 H5          1.0039    1.9031    0.0027 H         1 <0>         0.0619
     29 H6         -0.5459    1.8868   -0.8726 H         1 <0>         0.0712
     30 H7         -0.5289    1.8773    0.9072 H         1 <0>         0.0682
     31 H8          2.6603   -0.1761   -0.4257 H         1 <0>         0.1323
     32 H9          3.8260   -0.9666   -2.4425 H         1 <0>         0.1364
     33 H10        -1.1084   -0.9069   -2.2856 H         1 <0>         0.1368
     34 H11         1.6544   -0.7070    1.1351 H         1 <0>         0.3996
     35 H12         2.6848   -1.3208    2.5515 H         1 <0>         0.1470
     36 H13        -0.9563   -1.0291    4.8068 H         1 <0>         0.1904
@<TRIPOS>BOND
     1    1    2 1
     2    1   28 1
     3    1   29 1
     4    1   30 1
     5    2    3 1
     6    2    4 1
     7    2   16 1
     8    4    9 ar
     9    4    5 ar
    10    5    6 ar
    11    5   31 1
    12    6    7 ar
    13    6   32 1
    14    7   14 1
    15    7    8 ar
    16    8    9 ar
    17    8   10 1
    18    9   33 1
    19   10   11 1
    20   10   12 am
    21   12   13 2
    22   12   14 am
    23   14   15 1
    24   16   17 am
    25   16   34 1
    26   17   18 2
    27   17   19 1
    28   19   26 2
    29   19   20 1
    30   20   21 2
    31   20   35 1
    32   21   22 1
    33   21   27 1
    34   22   23 2
    35   22   24 am
    36   24   25 1
    37   24   26 1
    38   26   36 1
@<TRIPOS>MOLECULE
ZINC04958131
   34    36     0     0     0
SMALL
USER_CHARGES
[amino-(2-amino-9-methyl-4-phenyl-7-thia-3,5-diazabicyclo[4.3.0]nona-2,4,8,10-tetraen-8-yl)-methylene]aminoformonitrile
@<TRIPOS>ATOM
      1 C1          1.2389    3.4538    0.2719 C.3       1 <0>        -0.1481
      2 C2         -0.1798    3.9619    0.2588 C.2       1 <0>         0.0427
      3 C3         -1.2289    3.1042   -0.0920 C.ar      1 <0>        -0.2719
      4 C4         -1.1802    1.7265   -0.4669 C.ar      1 <0>         0.5165
      5 N1         -2.3035    1.0955   -0.7570 N.ar      1 <0>        -0.5790
      6 C5         -3.4862    1.7010   -0.7179 C.ar      1 <0>         0.4513
      7 N2         -3.5945    2.9808   -0.3817 N.ar      1 <0>        -0.5146
      8 C6         -2.5239    3.6818   -0.0782 C.ar      1 <0>         0.1756
      9 S1         -2.2176    5.3599    0.4106 S.3       1 <0>         0.1609
     10 C7         -0.4445    5.2584    0.5882 C.2       1 <0>        -0.1996
     11 C8          0.4960    6.3114    0.9808 C.2       1 <0>         0.5690
     12 N3          1.7920    6.0498    1.0487 N.2       1 <0>        -0.5121
     13 C9          2.6616    7.0234    1.4117 C.1       1 <0>         0.3623
     14 N4          3.3907    7.8397    1.7161 N.1       1 <0>        -0.4454
     15 N5          0.0331    7.5691    1.2781 N.pl3     1 <0>        -0.8486
     16 C10        -4.7078    0.9325   -1.0558 C.ar      1 <0>        -0.0594
     17 C11        -5.9571    1.5502   -1.0144 C.ar      1 <0>        -0.0618
     18 C12        -7.0902    0.8311   -1.3356 C.ar      1 <0>        -0.1323
     19 C13        -6.9896   -0.5031   -1.6869 C.ar      1 <0>        -0.0896
     20 C14        -5.7533   -1.1229   -1.7242 C.ar      1 <0>        -0.1331
     21 C15        -4.6126   -0.4125   -1.4106 C.ar      1 <0>        -0.0612
     22 N6          0.0277    1.0604   -0.5198 N.pl3     1 <0>        -0.8299
     23 H1          1.6520    3.5036   -0.7355 H         1 <0>         0.0875
     24 H2          1.8392    4.0697    0.9416 H         1 <0>         0.1226
     25 H3          1.2517    2.4207    0.6192 H         1 <0>         0.0765
     26 H4         -0.9164    7.7608    1.2283 H         1 <0>         0.4095
     27 H5          0.6557    8.2662    1.5379 H         1 <0>         0.4142
     28 H6         -6.0373    2.5905   -0.7356 H         1 <0>         0.1389
     29 H7         -8.0580    1.3097   -1.3082 H         1 <0>         0.1307
     30 H8         -7.8796   -1.0630   -1.9335 H         1 <0>         0.1277
     31 H9         -5.6808   -2.1647   -1.9995 H         1 <0>         0.1301
     32 H10        -3.6480   -0.8973   -1.4404 H         1 <0>         0.1379
     33 H11         0.8445    1.5509   -0.7019 H         1 <0>         0.4199
     34 H12         0.0601    0.1024   -0.3709 H         1 <0>         0.4128
@<TRIPOS>BOND
     1    1    2 1
     2    1   23 1
     3    1   24 1
     4    1   25 1
     5    2   10 2
     6    2    3 1
     7    3    8 ar
     8    3    4 ar
     9    4    5 ar
    10    4   22 1
    11    5    6 ar
    12    6    7 ar
    13    6   16 1
    14    7    8 ar
    15    8    9 1
    16    9   10 1
    17   10   11 1
    18   11   12 2
    19   11   15 1
    20   12   13 1
    21   13   14 3
    22   15   26 1
    23   15   27 1
    24   16   21 ar
    25   16   17 ar
    26   17   18 ar
    27   17   28 1
    28   18   19 ar
    29   18   29 1
    30   19   20 ar
    31   19   30 1
    32   20   21 ar
    33   20   31 1
    34   21   32 1
    35   22   33 1
    36   22   34 1
@<TRIPOS>MOLECULE
ZINC33494819
   26    26     0     0     0
SMALL
USER_CHARGES
5-bromo-3-methyl-2-(methylamino)benzohydrazide
@<TRIPOS>ATOM
      1 C1         -0.2577    5.3479   -0.0657 C.3       1 <0>        -0.1067
      2 C2         -0.1375    3.8465   -0.0186 C.ar      1 <0>        -0.0999
      3 C3         -1.2742    3.0639   -0.0143 C.ar      1 <0>        -0.0600
      4 C4         -1.1744    1.6816    0.0231 C.ar      1 <0>        -0.1044
      5 C5          0.0623    1.0738    0.0671 C.ar      1 <0>        -0.0604
      6 C6          1.2220    1.8527    0.0633 C.ar      1 <0>        -0.1443
      7 C7          1.1172    3.2518    0.0200 C.ar      1 <0>         0.2587
      8 N1          2.2626    4.0379    0.0162 N.pl3     1 <0>        -0.7913
      9 C8          2.6175    4.4447   -1.3500 C.3       1 <0>         0.1065
     10 C9          2.5479    1.2092    0.1041 C.2       1 <0>         0.5643
     11 O1          3.5545    1.8839    0.0036 O.2       1 <0>        -0.5050
     12 N2          2.6441   -0.1269    0.2527 N.am      1 <0>        -0.5984
     13 N3          3.8726   -0.7232    0.2904 N.3       1 <0>        -0.5753
     14 Br1        -2.7425    0.6248    0.0211 Br        1 <0>        -0.0434
     15 H1         -1.3206    5.6300   -0.0917 H         1 <0>         0.0658
     16 H2          0.2447    5.7278   -0.9675 H         1 <0>         0.0750
     17 H3          0.2150    5.7818    0.8278 H         1 <0>         0.0748
     18 H4         -2.2474    3.5310   -0.0445 H         1 <0>         0.1381
     19 H5          0.1346   -0.0033    0.0999 H         1 <0>         0.1311
     20 H6          2.8827    4.3617    0.8651 H         1 <0>         0.4379
     21 H7          3.5258    5.0646   -1.3237 H         1 <0>         0.0640
     22 H8          1.7906    5.0241   -1.7865 H         1 <0>         0.0359
     23 H9          2.8018    3.5500   -1.9628 H         1 <0>         0.0342
     24 H10         1.7335   -0.7372    0.3436 H         1 <0>         0.4135
     25 H11         3.7494   -1.8090    0.4160 H         1 <0>         0.3542
     26 H12         4.4072   -0.5211   -0.6495 H         1 <0>         0.3352
@<TRIPOS>BOND
     1    1    2 1
     2    1   15 1
     3    1   16 1
     4    1   17 1
     5    2    7 ar
     6    2    3 ar
     7    3    4 ar
     8    3   18 1
     9    4    5 ar
    10    4   14 1
    11    5    6 ar
    12    5   19 1
    13    6    7 ar
    14    6   10 1
    15    7    8 1
    16    8    9 1
    17    8   20 1
    18    9   21 1
    19    9   22 1
    20    9   23 1
    21   10   11 2
    22   10   12 am
    23   12   13 1
    24   12   24 1
    25   13   25 1
    26   13   26 1
@<TRIPOS>MOLECULE
ZINC42139305
   36    37     0     0     0
SMALL
USER_CHARGES

@<TRIPOS>ATOM
      1 C1         -0.0518    1.5487   -0.0284 C.3       1 <0>        -0.1377
      2 C2         -0.0205    0.0191   -0.0253 C.3       1 <0>         0.0960
      3 C3          0.7048   -0.4808   -1.2799 C.3       1 <0>         0.1368
      4 N1          0.8865   -1.9363   -1.1620 N.pl3     1 <0>        -0.6427
      5 C4          1.4771   -2.4613    0.0793 C.3       1 <0>         0.1227
      6 C5          0.7141   -1.8650    1.2676 C.3       1 <0>         0.0437
      7 O1          0.6748   -0.4420    1.1356 O.3       1 <0>        -0.3716
      8 C6          0.5122   -2.7871   -2.1892 C.ar      1 <0>         0.3777
      9 C7          1.4047   -3.0412   -3.2440 C.ar      1 <0>        -0.1440
     10 C8          1.0072   -3.9038   -4.2719 C.ar      1 <0>        -0.1236
     11 C9         -0.2584   -4.4726   -4.2021 C.ar      1 <0>         0.1556
     12 C10        -1.0823   -4.1707   -3.1251 C.ar      1 <0>         0.0697
     13 N2         -0.6811   -3.3586   -2.1666 N.ar      1 <0>        -0.4563
     14 N3         -0.6996   -5.3415   -5.2082 N.pl3     1 <0>        -0.8700
     15 C11         2.7367   -2.4097   -3.2680 C.2       1 <0>         0.5641
     16 O2          3.1111   -1.7441   -2.3217 O.2       1 <0>        -0.5082
     17 N4          3.5394   -2.5702   -4.3387 N.am      1 <0>        -0.8545
     18 C12        -1.4519   -0.5213   -0.0119 C.3       1 <0>        -0.1715
     19 H1          0.9682    1.9330   -0.0398 H         1 <0>         0.0643
     20 H2         -0.5821    1.8995   -0.9137 H         1 <0>         0.0693
     21 H3         -0.5637    1.9035    0.8662 H         1 <0>         0.0653
     22 H4          0.1075   -0.2557   -2.1635 H         1 <0>         0.0664
     23 H5          1.6772    0.0053   -1.3599 H         1 <0>         0.0683
     24 H6          1.3912   -3.5478    0.0958 H         1 <0>         0.0690
     25 H7          2.5272   -2.1746    0.1361 H         1 <0>         0.0678
     26 H8         -0.3026   -2.2575    1.2815 H         1 <0>         0.0567
     27 H9          1.2204   -2.1306    2.1957 H         1 <0>         0.0962
     28 H10         1.6673   -4.1215   -5.0985 H         1 <0>         0.1355
     29 H11        -2.0666   -4.6119   -3.0697 H         1 <0>         0.1572
     30 H12        -0.1206   -5.5488   -5.9583 H         1 <0>         0.4014
     31 H13        -1.5841   -5.7360   -5.1547 H         1 <0>         0.4039
     32 H14         3.2407   -3.1011   -5.0936 H         1 <0>         0.3974
     33 H15         4.4158   -2.1547   -4.3545 H         1 <0>         0.4057
     34 H16        -1.9809   -0.1709   -0.8981 H         1 <0>         0.0594
     35 H17        -1.4288   -1.6111   -0.0097 H         1 <0>         0.0727
     36 H18        -1.9656   -0.1670    0.8818 H         1 <0>         0.0570
@<TRIPOS>BOND
     1    1    2 1
     2    1   19 1
     3    1   20 1
     4    1   21 1
     5    2    7 1
     6    2    3 1
     7    2   18 1
     8    3    4 1
     9    3   22 1
    10    3   23 1
    11    4    5 1
    12    4    8 1
    13    5    6 1
    14    5   24 1
    15    5   25 1
    16    6    7 1
    17    6   26 1
    18    6   27 1
    19    8   13 ar
    20    8    9 ar
    21    9   10 ar
    22    9   15 1
    23   10   11 ar
    24   10   28 1
    25   11   12 ar
    26   11   14 1
    27   12   13 ar
    28   12   29 1
    29   14   30 1
    30   14   31 1
    31   15   16 2
    32   15   17 am
    33   17   32 1
    34   17   33 1
    35   18   34 1
    36   18   35 1
    37   18   36 1
@<TRIPOS>MOLECULE
ZINC50305957
   34    35     0     0     0
SMALL
USER_CHARGES

@<TRIPOS>ATOM
      1 C1          1.2479    1.1071    0.8793 C.3       1 <0>        -0.0712
      2 C2          0.7378   -0.2853    0.6109 C.2       1 <0>        -0.0826
      3 C3          1.2475   -1.1744   -0.2824 C.2       1 <0>         0.1606
      4 C4          0.4348   -2.3318   -0.1684 C.2       1 <0>        -0.0662
      5 N1         -0.4770   -2.0759    0.7505 N.2       1 <0>        -0.2363
      6 N2         -0.3148   -0.8914    1.2202 N.pl3     1 <0>        -0.3624
      7 H1         -0.8656   -0.4870    1.9086 H         1 <0>         0.4481
      8 C5          0.5810   -3.5840   -0.9331 C.2       1 <0>         0.6123
      9 O1          1.4687   -3.6931   -1.7574 O.2       1 <0>        -0.5249
     10 N3         -0.2690   -4.6077   -0.7187 N.am      1 <0>        -0.6368
     11 C6         -0.1839   -5.7699   -1.5076 C.2       1 <0>        -0.0103
     12 C7         -0.3392   -5.8363   -2.9000 C.2       1 <0>         0.0945
     13 N4         -0.1910   -7.0819   -3.2718 N.2       1 <0>        -0.2877
     14 N5          0.0639   -7.8554   -2.1322 N.pl3     1 <0>        -0.3720
     15 C8          0.0688   -7.0254   -1.0570 C.2       1 <0>         0.0832
     16 C9          0.3078   -7.4260    0.3760 C.3       1 <0>        -0.0916
     17 C10         0.2902   -9.3026   -2.1054 C.3       1 <0>         0.1042
     18 C11        -0.6279   -4.6718   -3.8120 C.3       1 <0>        -0.0681
     19 N6          2.3445   -0.9871   -1.1360 N.pl3     1 <0>        -0.8528
     20 H2          2.0015    1.0726    1.6660 H         1 <0>         0.0713
     21 H3          1.6903    1.5136   -0.0301 H         1 <0>         0.0769
     22 H4          0.4207    1.7422    1.1962 H         1 <0>         0.0692
     23 H5         -0.9393   -4.5434   -0.0205 H         1 <0>         0.4111
     24 H6         -0.6424   -7.6809    0.8453 H         1 <0>         0.0826
     25 H7          0.9712   -8.2902    0.4059 H         1 <0>         0.0745
     26 H8          0.7673   -6.5964    0.9133 H         1 <0>         0.0848
     27 H9          1.3551   -9.5060   -2.2184 H         1 <0>         0.0759
     28 H10        -0.0581   -9.7072   -1.1551 H         1 <0>         0.0877
     29 H11        -0.2579   -9.7713   -2.9226 H         1 <0>         0.0918
     30 H12         0.2863   -4.3795   -4.3285 H         1 <0>         0.0807
     31 H13        -1.3819   -4.9617   -4.5438 H         1 <0>         0.0733
     32 H14        -0.9970   -3.8321   -3.2232 H         1 <0>         0.0699
     33 H15         2.8283   -0.1464   -1.1267 H         1 <0>         0.3973
     34 H16         2.6194   -1.6983   -1.7357 H         1 <0>         0.4129
@<TRIPOS>BOND
     1    1    2 1
     2    1   20 1
     3    1   21 1
     4    1   22 1
     5    2    6 1
     6    2    3 2
     7    3    4 1
     8    3   19 1
     9    4    5 2
    10    4    8 1
    11    5    6 1
    12    6    7 1
    13    8    9 2
    14    8   10 am
    15   10   11 1
    16   10   23 1
    17   11   15 2
    18   11   12 1
    19   12   13 2
    20   12   18 1
    21   13   14 1
    22   14   15 1
    23   14   17 1
    24   15   16 1
    25   16   24 1
    26   16   25 1
    27   16   26 1
    28   17   27 1
    29   17   28 1
    30   17   29 1
    31   18   30 1
    32   18   31 1
    33   18   32 1
    34   19   33 1
    35   19   34 1
@<TRIPOS>MOLECULE
ZINC61710524
   31    32     0     0     0
SMALL
USER_CHARGES

@<TRIPOS>ATOM
      1 C1         -0.0167    1.3799    0.0096 C.ar      1 <0>        -0.0863
      2 C2          1.1652    2.0948    0.0022 C.ar      1 <0>        -0.1233
      3 C3          2.3820    1.4273   -0.0134 C.ar      1 <0>         0.2352
      4 C4          2.4054    0.0256   -0.0211 C.ar      1 <0>        -0.0926
      5 C5          1.2037   -0.6844   -0.0130 C.ar      1 <0>        -0.0025
      6 C6          0.0021   -0.0041    0.0020 C.ar      1 <0>        -0.1163
      7 Cl1         1.2196   -2.4203   -0.0230 Cl        1 <0>        -0.0552
      8 C7          3.6950   -0.6961   -0.0383 C.2       1 <0>         0.4339
      9 N1          4.2746   -1.0200    1.0816 N.2       1 <0>        -0.4120
     10 O1          3.6694   -0.6808    2.3160 O.3       1 <0>        -0.4039
     11 N2          4.2868   -1.0279   -1.2455 N.pl3     1 <0>        -0.8276
     12 N3          3.5740    2.1466   -0.0219 N.pl3     1 <0>        -0.6810
     13 C8          4.2942    2.6020   -1.2249 C.3       1 <0>         0.1340
     14 C9          5.1321    3.8153   -0.7500 C.3       1 <0>        -0.1673
     15 C10         5.5556    3.3636    0.6727 C.3       1 <0>         0.0943
     16 H1          6.4318    2.7168    0.6271 H         1 <0>         0.0709
     17 C11         4.3197    2.5834    1.1676 C.3       1 <0>         0.1426
     18 O2          5.8078    4.4951    1.5083 O.3       1 <0>        -0.5601
     19 H2         -0.9609    1.9038    0.0260 H         1 <0>         0.1383
     20 H3          1.1424    3.1745    0.0082 H         1 <0>         0.1340
     21 H4         -0.9272   -0.5543    0.0083 H         1 <0>         0.1392
     22 H5          4.1734   -0.9625    3.0917 H         1 <0>         0.3964
     23 H6          3.8550   -0.7866   -2.0799 H         1 <0>         0.4106
     24 H7          5.1332   -1.5016   -1.2567 H         1 <0>         0.4070
     25 H8          4.9470    1.8128   -1.5977 H         1 <0>         0.0533
     26 H9          3.5880    2.9076   -1.9969 H         1 <0>         0.0647
     27 H10         6.0031    3.9626   -1.3886 H         1 <0>         0.0819
     28 H11         4.5231    4.7183   -0.7081 H         1 <0>         0.0838
     29 H12         3.6925    3.2295    1.7817 H         1 <0>         0.0608
     30 H13         4.6383    1.7153    1.7447 H         1 <0>         0.0635
     31 H14         6.5257    5.0626    1.1958 H         1 <0>         0.3834
@<TRIPOS>BOND
     1    1    6 ar
     2    1    2 ar
     3    1   19 1
     4    2    3 ar
     5    2   20 1
     6    3    4 ar
     7    3   12 1
     8    4    5 ar
     9    4    8 1
    10    5    6 ar
    11    5    7 1
    12    6   21 1
    13    8    9 2
    14    8   11 1
    15    9   10 1
    16   10   22 1
    17   11   23 1
    18   11   24 1
    19   12   17 1
    20   12   13 1
    21   13   14 1
    22   13   25 1
    23   13   26 1
    24   14   15 1
    25   14   27 1
    26   14   28 1
    27   15   16 1
    28   15   17 1
    29   15   18 1
    30   17   29 1
    31   17   30 1
    32   18   31 1
@<TRIPOS>MOLECULE
ZINC00098181
   34    35     0     0     0
SMALL
USER_CHARGES
6,6-dimethyl-1-[3-(trifluoromethyl)phenyl]-1,3,5-triazine-2,4-diamine
@<TRIPOS>ATOM
      1 C1         -2.4116    5.0759   -0.6863 C.3       1 <0>        -0.1341
      2 C2         -1.3330    5.9766   -0.0811 C.3       1 <0>         0.3734
      3 N1         -1.1551    7.1644   -0.9182 N.2       1 <0>        -0.6867
      4 C3          0.0224    7.7171   -1.0400 C.2       1 <0>         0.6203
      5 N2          1.1137    7.2069   -0.4446 N.2       1 <0>        -0.6770
      6 C4          1.0976    5.9943    0.0773 C.2       1 <0>         0.6961
      7 N3         -0.0550    5.2501   -0.0241 N.pl3     1 <0>        -0.6219
      8 C5         -0.0130    3.8529   -0.0771 C.ar      1 <0>         0.1367
      9 C6         -0.1449    3.1079    1.0878 C.ar      1 <0>        -0.0894
     10 C7         -0.1082    1.7287    1.0314 C.ar      1 <0>        -0.1065
     11 C8          0.0697    1.0892   -0.1820 C.ar      1 <0>        -0.0655
     12 C9          0.2008    1.8279   -1.3435 C.ar      1 <0>        -0.1706
     13 C10         0.1602    3.2077   -1.2945 C.ar      1 <0>        -0.0616
     14 C11         0.3888    1.1268   -2.6641 C.3       1 <0>         0.5084
     15 F1          0.3974   -0.2573   -2.4603 F         1 <0>        -0.1740
     16 F2         -0.6608    1.4648   -3.5251 F         1 <0>        -0.1734
     17 F3          1.6043    1.5219   -3.2331 F         1 <0>        -0.1746
     18 N4          2.2021    5.4894    0.7053 N.pl3     1 <0>        -0.8170
     19 N5          0.1492    8.8603   -1.8031 N.pl3     1 <0>        -0.8283
     20 C12        -1.7472    6.4026    1.3288 C.3       1 <0>        -0.1612
     21 H1         -2.6162    4.2478   -0.0077 H         1 <0>         0.0607
     22 H2         -3.3232    5.6536   -0.8398 H         1 <0>         0.0825
     23 H3         -2.0640    4.6848   -1.6424 H         1 <0>         0.0591
     24 H4         -0.2797    3.6068    2.0361 H         1 <0>         0.1381
     25 H5         -0.2147    1.1488    1.9362 H         1 <0>         0.1443
     26 H6          0.1018    0.0105   -0.2230 H         1 <0>         0.1452
     27 H7          0.2627    3.7841   -2.2021 H         1 <0>         0.1345
     28 H8          2.2004    4.5750    1.0291 H         1 <0>         0.4110
     29 H9          2.9875    6.0454    0.8269 H         1 <0>         0.4244
     30 H10         1.0166    9.2829   -1.9032 H         1 <0>         0.4067
     31 H11        -0.6290    9.2410   -2.2394 H         1 <0>         0.4111
     32 H12        -0.9809    7.0522    1.7519 H         1 <0>         0.0514
     33 H13        -2.6942    6.9404    1.2823 H         1 <0>         0.0781
     34 H14        -1.8616    5.5189    1.9565 H         1 <0>         0.0596
@<TRIPOS>BOND
     1    1    2 1
     2    1   21 1
     3    1   22 1
     4    1   23 1
     5    2    7 1
     6    2    3 1
     7    2   20 1
     8    3    4 2
     9    4    5 1
    10    4   19 1
    11    5    6 2
    12    6    7 1
    13    6   18 1
    14    7    8 1
    15    8   13 ar
    16    8    9 ar
    17    9   10 ar
    18    9   24 1
    19   10   11 ar
    20   10   25 1
    21   11   12 ar
    22   11   26 1
    23   12   13 ar
    24   12   14 1
    25   13   27 1
    26   14   15 1
    27   14   16 1
    28   14   17 1
    29   18   28 1
    30   18   29 1
    31   19   30 1
    32   19   31 1
    33   20   32 1
    34   20   33 1
    35   20   34 1
@<TRIPOS>MOLECULE
ZINC33494816
   23    23     0     0     0
SMALL
USER_CHARGES
5-bromo-3-fluoro-2-(methylamino)benzohydrazide
@<TRIPOS>ATOM
      1 C1          1.9494   -2.5753   -1.2176 C.3       1 <0>         0.0809
      2 N1          1.2632   -2.0709   -0.0207 N.pl3     1 <0>        -0.7631
      3 C2          1.2309   -0.6807   -0.0133 C.ar      1 <0>         0.2398
      4 C3          0.0021   -0.0041    0.0020 C.ar      1 <0>        -0.1435
      5 C4         -0.0169    1.3933    0.0097 C.ar      1 <0>        -0.0479
      6 C5          1.1679    2.0977    0.0022 C.ar      1 <0>        -0.1014
      7 C6          2.3815    1.4273   -0.0130 C.ar      1 <0>        -0.0807
      8 C7          2.4169    0.0464   -0.0208 C.ar      1 <0>         0.0649
      9 F1          3.6039   -0.5985   -0.0351 F         1 <0>        -0.1226
     10 Br1         1.1380    3.9885    0.0120 Br        1 <0>        -0.0298
     11 C8         -1.2621   -0.7628    0.0095 C.2       1 <0>         0.5696
     12 O1         -1.2415   -1.9786    0.0028 O.2       1 <0>        -0.5124
     13 N2         -2.4405   -0.1088    0.0238 N.am      1 <0>        -0.5945
     14 N3         -3.6117   -0.8118    0.0308 N.3       1 <0>        -0.5754
     15 H1          1.9605   -3.6751   -1.1978 H         1 <0>         0.0722
     16 H2          2.9827   -2.1984   -1.2340 H         1 <0>         0.0531
     17 H3          1.4189   -2.2301   -2.1172 H         1 <0>         0.0415
     18 H4          0.8591   -2.7766    0.7200 H         1 <0>         0.4505
     19 H5         -0.9592    1.9209    0.0170 H         1 <0>         0.1388
     20 H6          3.3045    1.9880   -0.0188 H         1 <0>         0.1512
     21 H7         -2.4591    0.9910    0.0298 H         1 <0>         0.4154
     22 H8         -4.4597   -0.1113    0.0423 H         1 <0>         0.3562
     23 H9         -3.6675   -1.4403   -0.8702 H         1 <0>         0.3371
@<TRIPOS>BOND
     1    1    2 1
     2    1   15 1
     3    1   16 1
     4    1   17 1
     5    2    3 1
     6    2   18 1
     7    3    8 ar
     8    3    4 ar
     9    4    5 ar
    10    4   11 1
    11    5    6 ar
    12    5   19 1
    13    6    7 ar
    14    6   10 1
    15    7    8 ar
    16    7   20 1
    17    8    9 1
    18   11   12 2
    19   11   13 am
    20   13   14 1
    21   13   21 1
    22   14   22 1
    23   14   23 1
@<TRIPOS>MOLECULE
ZINC37933960
   37    38     0     0     0
SMALL
USER_CHARGES

@<TRIPOS>ATOM
      1 C1         -0.0454    1.5115   -0.0119 C.3       1 <0>        -0.1479
      2 C2         -0.0088   -0.0181   -0.0135 C.3       1 <0>        -0.1090
      3 H1         -1.0273   -0.4064   -0.0123 H         1 <0>         0.0751
      4 C3          0.7240   -0.5102   -1.2637 C.3       1 <0>        -0.1145
      5 C4          0.7325   -2.0405   -1.2828 C.3       1 <0>        -0.1379
      6 C5          1.4790   -2.5585   -0.0494 C.3       1 <0>         0.1189
      7 N1          0.8694   -1.9734    1.1526 N.pl3     1 <0>        -0.6243
      8 C6          0.7285   -0.5132    1.2347 C.3       1 <0>         0.1201
      9 C7          0.4314   -2.7899    2.1977 C.ar      1 <0>         0.2494
     10 C8          0.4639   -4.1707    2.0610 C.ar      1 <0>        -0.2275
     11 C9          0.0278   -4.9782    3.1017 C.ar      1 <0>         0.2451
     12 C10        -0.4399   -4.4024    4.2770 C.ar      1 <0>        -0.1563
     13 C11        -0.4710   -3.0278    4.4098 C.ar      1 <0>        -0.5753
     14 C12        -0.0321   -2.2208    3.3775 C.ar      1 <0>        -0.1573
     15 S1         -1.0648   -2.3019    5.9015 S.o2      1 <0>         2.6998
     16 O1         -1.5026   -0.9915    5.5693 O.2       1 <0>        -0.9637
     17 O2         -1.9212   -3.2607    6.5069 O.2       1 <0>        -0.9637
     18 N2          0.2358   -2.1246    6.9112 N.pl3     1 <0>        -1.2496
     19 N3          0.0585   -6.3682    2.9681 N.pl3     1 <0>        -0.8737
     20 H2          0.9733    1.8993   -0.0131 H         1 <0>         0.0570
     21 H3         -0.5691    1.8633   -0.9008 H         1 <0>         0.0595
     22 H4         -0.5664    1.8615    0.8792 H         1 <0>         0.0597
     23 H5          0.2148   -0.1387   -2.1529 H         1 <0>         0.0659
     24 H6          1.7497   -0.1415   -1.2521 H         1 <0>         0.0642
     25 H7         -0.2928   -2.4102   -1.2694 H         1 <0>         0.0669
     26 H8          1.2341   -2.3902   -2.1852 H         1 <0>         0.0744
     27 H9          1.4029   -3.6450   -0.0059 H         1 <0>         0.0822
     28 H10         2.5273   -2.2655   -0.1070 H         1 <0>         0.0645
     29 H11         1.7157   -0.0534    1.2823 H         1 <0>         0.0657
     30 H12         0.1573   -0.2501    2.1249 H         1 <0>         0.0873
     31 H13         0.8275   -4.6156    1.1465 H         1 <0>         0.1293
     32 H14        -0.7798   -5.0304    5.0873 H         1 <0>         0.1367
     33 H15        -0.0532   -1.1465    3.4863 H         1 <0>         0.1390
     34 H16         1.1172   -2.4071    6.6210 H         1 <0>         0.4172
     35 H17         0.1161   -1.7383    7.7929 H         1 <0>         0.4205
     36 H18         0.3847   -6.7695    2.1475 H         1 <0>         0.3999
     37 H19        -0.2465   -6.9322    3.6959 H         1 <0>         0.4026
@<TRIPOS>BOND
     1    1    2 1
     2    1   20 1
     3    1   21 1
     4    1   22 1
     5    2    3 1
     6    2    8 1
     7    2    4 1
     8    4    5 1
     9    4   23 1
    10    4   24 1
    11    5    6 1
    12    5   25 1
    13    5   26 1
    14    6    7 1
    15    6   27 1
    16    6   28 1
    17    7    8 1
    18    7    9 1
    19    8   29 1
    20    8   30 1
    21    9   14 ar
    22    9   10 ar
    23   10   11 ar
    24   10   31 1
    25   11   12 ar
    26   11   19 1
    27   12   13 ar
    28   12   32 1
    29   13   14 ar
    30   13   15 1
    31   14   33 1
    32   15   16 2
    33   15   17 2
    34   15   18 1
    35   18   34 1
    36   18   35 1
    37   19   36 1
    38   19   37 1
@<TRIPOS>MOLECULE
ZINC42270544
   38    39     0     0     0
SMALL
USER_CHARGES

@<TRIPOS>ATOM
      1 C1         -1.5346    0.8591   -0.3466 C.3       1 <0>        -0.1088
      2 C2         -0.6074   -0.3170   -0.1790 C.ar      1 <0>        -0.1112
      3 C3          0.1332   -0.7846   -1.2647 C.ar      1 <0>        -0.0805
      4 C4          0.9898   -1.8744   -1.1017 C.ar      1 <0>        -0.1478
      5 C5          1.1018   -2.4861    0.1305 C.ar      1 <0>        -0.0796
      6 C6          0.3679   -2.0234    1.2063 C.ar      1 <0>        -0.1763
      7 C7         -0.4832   -0.9344    1.0561 C.ar      1 <0>         0.2140
      8 N1         -1.2180   -0.4662    2.1482 N.pl3     1 <0>        -0.8750
      9 C8          0.0107   -0.1282   -2.5840 C.2       1 <0>         0.5571
     10 O1          0.1160    1.0794   -2.6741 O.2       1 <0>        -0.4942
     11 N2         -0.2177   -0.8689   -3.6866 N.am      1 <0>        -0.5978
     12 C9         -0.4358   -2.3182   -3.5829 C.3       1 <0>         0.1027
     13 C10        -1.7504   -2.6705   -4.2862 C.3       1 <0>        -0.1384
     14 C11        -1.7139   -2.1415   -5.7218 C.3       1 <0>        -0.1186
     15 C12        -1.5698   -0.6180   -5.7023 C.3       1 <0>        -0.1242
     16 C13        -0.2592   -0.2415   -5.0145 C.3       1 <0>         0.1280
     17 H1          0.5794   -0.5971   -5.6131 H         1 <0>         0.0881
     18 C14        -0.1800    1.2563   -4.8682 C.2       1 <0>         0.5378
     19 O2         -1.1014    1.8664   -4.3684 O.2       1 <0>        -0.5250
     20 N3          0.9147    1.9179   -5.2929 N.am      1 <0>        -0.8547
     21 H2         -1.0170    1.7739   -0.0581 H         1 <0>         0.0728
     22 H3         -1.8457    0.9309   -1.3888 H         1 <0>         0.0740
     23 H4         -2.4119    0.7231    0.2858 H         1 <0>         0.0584
     24 H5          1.5649   -2.2393   -1.9399 H         1 <0>         0.1243
     25 H6          1.7650   -3.3295    0.2544 H         1 <0>         0.1284
     26 H7          0.4592   -2.5065    2.1678 H         1 <0>         0.1248
     27 H8         -1.8151    0.2909    2.0424 H         1 <0>         0.4002
     28 H9         -1.1311   -0.8982    3.0124 H         1 <0>         0.3998
     29 H10         0.3881   -2.8469   -4.0621 H         1 <0>         0.0735
     30 H11        -0.4950   -2.6046   -2.5328 H         1 <0>         0.0992
     31 H12        -1.8765   -3.7531   -4.3004 H         1 <0>         0.0803
     32 H13        -2.5830   -2.2137   -3.7511 H         1 <0>         0.0698
     33 H14        -0.8665   -2.5797   -6.2489 H         1 <0>         0.0673
     34 H15        -2.6382   -2.4123   -6.2321 H         1 <0>         0.0728
     35 H16        -1.5674   -0.2397   -6.7246 H         1 <0>         0.0792
     36 H17        -2.4041   -0.1806   -5.1540 H         1 <0>         0.0816
     37 H18         1.6516    1.4300   -5.6926 H         1 <0>         0.3952
     38 H19         0.9657    2.8820   -5.1987 H         1 <0>         0.4028
@<TRIPOS>BOND
     1    1    2 1
     2    1   21 1
     3    1   22 1
     4    1   23 1
     5    2    7 ar
     6    2    3 ar
     7    3    4 ar
     8    3    9 1
     9    4    5 ar
    10    4   24 1
    11    5    6 ar
    12    5   25 1
    13    6    7 ar
    14    6   26 1
    15    7    8 1
    16    8   27 1
    17    8   28 1
    18    9   10 2
    19    9   11 am
    20   11   16 1
    21   11   12 1
    22   12   13 1
    23   12   29 1
    24   12   30 1
    25   13   14 1
    26   13   31 1
    27   13   32 1
    28   14   15 1
    29   14   33 1
    30   14   34 1
    31   15   16 1
    32   15   35 1
    33   15   36 1
    34   16   17 1
    35   16   18 1
    36   18   19 2
    37   18   20 am
    38   20   37 1
    39   20   38 1
@<TRIPOS>MOLECULE
ZINC53163028
   33    34     0     0     0
SMALL
USER_CHARGES

@<TRIPOS>ATOM
      1 C1         -0.0167    1.3822    0.0096 C.ar      1 <0>        -0.1786
      2 C2          1.1710    2.0911    0.0021 C.ar      1 <0>        -0.0755
      3 C3          2.3814    1.4204   -0.0130 C.ar      1 <0>         0.0065
      4 C4          2.4087    0.0344   -0.0207 C.ar      1 <0>         0.1099
      5 C5          1.2201   -0.6820   -0.0132 C.ar      1 <0>         0.0767
      6 C6          0.0021   -0.0041    0.0020 C.ar      1 <0>         0.2330
      7 N1         -1.2014   -0.7226    0.0096 N.pl3     1 <0>        -0.8629
      8 N2          1.2443   -2.0837   -0.0213 N.pl3     1 <0>        -0.6635
      9 C7          1.2510   -2.8249   -1.2899 C.3       1 <0>         0.1410
     10 C8          0.1012   -3.8370   -1.2758 C.3       1 <0>        -0.1160
     11 C9          0.2193   -4.7199   -0.0313 C.3       1 <0>        -0.1063
     12 C10         0.1138   -3.8514    1.2243 C.3       1 <0>        -0.1273
     13 C11         1.2694   -2.8393    1.2385 C.3       1 <0>         0.1433
     14 C12        -0.8908   -5.7391   -0.0316 C.2       1 <0>         0.5190
     15 O1         -1.6969   -5.7575   -0.9376 O.2       1 <0>        -0.5411
     16 N3         -0.9878   -6.6301    0.9750 N.am      1 <0>        -0.8562
     17 F1          3.5914   -0.6184   -0.0359 F         1 <0>        -0.1224
     18 F2          3.5386    2.1176   -0.0208 F         1 <0>        -0.1347
     19 H1         -0.9594    1.9090    0.0260 H         1 <0>         0.1387
     20 H2          1.1537    3.1710    0.0077 H         1 <0>         0.1456
     21 H3         -2.0484   -0.2500    0.0202 H         1 <0>         0.4015
     22 H4         -1.1872   -1.6925    0.0043 H         1 <0>         0.4024
     23 H5          1.1166   -2.1307   -2.1194 H         1 <0>         0.0751
     24 H6          2.1993   -3.3507   -1.4008 H         1 <0>         0.0573
     25 H7         -0.8506   -3.3061   -1.2561 H         1 <0>         0.0698
     26 H8          0.1530   -4.4590   -2.1694 H         1 <0>         0.0808
     27 H9          1.1817   -5.2316   -0.0391 H         1 <0>         0.1013
     28 H10        -0.8381   -3.3204    1.2204 H         1 <0>         0.0685
     29 H11         0.1746   -4.4836    2.1102 H         1 <0>         0.0764
     30 H12         2.2192   -3.3663    1.3295 H         1 <0>         0.0592
     31 H13         1.1472   -2.1547    2.0777 H         1 <0>         0.0751
     32 H14        -0.3431   -6.6154    1.6996 H         1 <0>         0.4015
     33 H15        -1.7024   -7.2861    0.9748 H         1 <0>         0.4019
@<TRIPOS>BOND
     1    1    6 ar
     2    1    2 ar
     3    1   19 1
     4    2    3 ar
     5    2   20 1
     6    3    4 ar
     7    3   18 1
     8    4    5 ar
     9    4   17 1
    10    5    6 ar
    11    5    8 1
    12    6    7 1
    13    7   21 1
    14    7   22 1
    15    8   13 1
    16    8    9 1
    17    9   10 1
    18    9   23 1
    19    9   24 1
    20   10   11 1
    21   10   25 1
    22   10   26 1
    23   11   12 1
    24   11   14 1
    25   11   27 1
    26   12   13 1
    27   12   28 1
    28   12   29 1
    29   13   30 1
    30   13   31 1
    31   14   15 2
    32   14   16 am
    33   16   32 1
    34   16   33 1
@<TRIPOS>MOLECULE
ZINC00062996
   39    42     0     0     0
SMALL
USER_CHARGES
3-amino-9-methyl-5-(1-naphthyl)-7-oxo-2,8-dioxabicyclo[4.4.0]deca-3,9,11-triene-4-carbonitrile
@<TRIPOS>ATOM
      1 C1         -1.8841    0.1821   -0.2075 C.3       1 <0>        -0.1177
      2 C2         -0.7526    1.1758   -0.1492 C.2       1 <0>         0.1735
      3 C3          0.5093    0.7181   -0.0597 C.2       1 <0>        -0.2516
      4 C4          1.5815    1.6380   -0.0096 C.2       1 <0>         0.2337
      5 C5          1.2888    2.9852   -0.0497 C.2       1 <0>        -0.2917
      6 C6         -0.0496    3.3847   -0.1377 C.2       1 <0>         0.5126
      7 O1         -0.3204    4.5737   -0.1738 O.2       1 <0>        -0.4492
      8 O2         -1.0381    2.4809   -0.1833 O.3       1 <0>        -0.2494
      9 C7          2.3865    4.0111    0.0004 C.3       1 <0>         0.1039
     10 H1          2.1013    4.8128    0.6816 H         1 <0>         0.1062
     11 C8          3.6635    3.3791    0.4809 C.2       1 <0>        -0.2535
     12 C9          3.8225    2.0347    0.4911 C.2       1 <0>         0.4274
     13 O3          2.8531    1.2000    0.0756 O.3       1 <0>        -0.2294
     14 N1          5.0081    1.5078    0.9392 N.pl3     1 <0>        -0.8268
     15 C10         4.7323    4.2158    0.9372 C.1       1 <0>         0.2689
     16 N2          5.5802    4.8795    1.2992 N.1       1 <0>        -0.4295
     17 C11         2.5994    4.5822   -1.3779 C.ar      1 <0>        -0.0583
     18 C12         2.8620    3.7563   -2.4277 C.ar      1 <0>        -0.1070
     19 C13         3.0607    4.2659   -3.7091 C.ar      1 <0>        -0.1153
     20 C14         2.9984    5.6045   -3.9485 C.ar      1 <0>        -0.1048
     21 C15         2.7300    6.4883   -2.8898 C.ar      1 <0>        -0.0505
     22 C16         2.5220    5.9694   -1.5872 C.ar      1 <0>        -0.0329
     23 C17         2.2594    6.8540   -0.5271 C.ar      1 <0>        -0.0978
     24 C18         2.1971    8.1922   -0.7665 C.ar      1 <0>        -0.1158
     25 C19         2.3965    8.7021   -2.0483 C.ar      1 <0>        -0.1135
     26 C20         2.6583    7.8764   -3.0980 C.ar      1 <0>        -0.1092
     27 H2         -2.2238   -0.0414    0.8038 H         1 <0>         0.1038
     28 H3         -2.7084    0.6035   -0.7829 H         1 <0>         0.0955
     29 H4         -1.5385   -0.7345   -0.6856 H         1 <0>         0.1046
     30 H5          0.7020   -0.3442   -0.0308 H         1 <0>         0.1723
     31 H6          5.1372    0.5465    0.9529 H         1 <0>         0.4131
     32 H7          5.7168    2.0967    1.2421 H         1 <0>         0.4283
     33 H8          2.9169    2.6901   -2.2648 H         1 <0>         0.1126
     34 H9          3.2669    3.5887   -4.5248 H         1 <0>         0.1228
     35 H10         3.1549    5.9852   -4.9470 H         1 <0>         0.1269
     36 H11         2.1036    6.4734    0.4715 H         1 <0>         0.1256
     37 H12         1.9905    8.8694    0.0490 H         1 <0>         0.1227
     38 H13         2.3420    9.7683   -2.2110 H         1 <0>         0.1229
     39 H14         2.8099    8.2857   -4.0859 H         1 <0>         0.1266
@<TRIPOS>BOND
     1    1    2 1
     2    1   27 1
     3    1   28 1
     4    1   29 1
     5    2    8 1
     6    2    3 2
     7    3    4 1
     8    3   30 1
     9    4   13 1
    10    4    5 2
    11    5    6 1
    12    5    9 1
    13    6    7 2
    14    6    8 1
    15    9   10 1
    16    9   11 1
    17    9   17 1
    18   11   12 2
    19   11   15 1
    20   12   13 1
    21   12   14 1
    22   14   31 1
    23   14   32 1
    24   15   16 3
    25   17   22 ar
    26   17   18 ar
    27   18   19 ar
    28   18   33 1
    29   19   20 ar
    30   19   34 1
    31   20   21 ar
    32   20   35 1
    33   21   26 ar
    34   21   22 ar
    35   22   23 ar
    36   23   24 ar
    37   23   36 1
    38   24   25 ar
    39   24   37 1
    40   25   26 ar
    41   25   38 1
    42   26   39 1
@<TRIPOS>MOLECULE
ZINC08756162
   37    38     0     0     0
SMALL
USER_CHARGES
1-(2,5-dichloro-3,6-dimethyl-phenyl)sulfonylpyrrolidine-2-carboxamide
@<TRIPOS>ATOM
      1 C1         -4.1682    2.6522    2.0693 C.3       1 <0>        -0.1221
      2 C2         -2.7071    2.3222    2.2344 C.ar      1 <0>        -0.0899
      3 C3         -1.9443    1.9909    1.1304 C.ar      1 <0>        -0.0413
      4 C4         -0.6020    1.6926    1.2814 C.ar      1 <0>        -0.0562
      5 C5         -0.0254    1.7153    2.5391 C.ar      1 <0>         0.0358
      6 C6         -0.7890    2.0419    3.6434 C.ar      1 <0>        -0.6732
      7 C7         -2.1306    2.3454    3.4917 C.ar      1 <0>         0.0519
      8 Cl1        -3.0900    2.7557    4.8791 Cl        1 <0>        -0.0142
      9 S1         -0.0547    2.0714    5.2448 S.o2      1 <0>         2.7037
     10 O1         -1.1078    1.8734    6.1782 O.2       1 <0>        -0.9066
     11 O2          1.0815    1.2201    5.1863 O.2       1 <0>        -0.9390
     12 N1          0.5159    3.6060    5.4936 N.pl3     1 <0>        -0.9888
     13 C8          1.8671    4.0862    5.1514 C.3       1 <0>         0.1128
     14 C9          1.7095    5.6203    4.9833 C.3       1 <0>        -0.1288
     15 C10         0.6845    5.9498    6.1006 C.3       1 <0>        -0.1205
     16 C11        -0.2389    4.7134    6.0981 C.3       1 <0>         0.1320
     17 H1         -1.1320    4.9189    5.5079 H         1 <0>         0.1008
     18 C12        -0.6284    4.3577    7.5098 C.2       1 <0>         0.5012
     19 O3         -0.3098    3.2837    7.9744 O.2       1 <0>        -0.5080
     20 N2         -1.3307    5.2332    8.2559 N.am      1 <0>        -0.8539
     21 C13         1.4355    1.3844    2.7044 C.3       1 <0>        -0.1469
     22 Cl2         0.3576    1.2829   -0.1061 Cl        1 <0>        -0.0444
     23 H2         -4.2821    3.7232    1.9019 H         1 <0>         0.0831
     24 H3         -4.7095    2.3657    2.9709 H         1 <0>         0.0805
     25 H4         -4.5697    2.1063    1.2155 H         1 <0>         0.0791
     26 H5         -2.3953    1.9688    0.1493 H         1 <0>         0.1519
     27 H6          2.5654    3.8603    5.9574 H         1 <0>         0.0805
     28 H7          2.2049    3.6354    4.2183 H         1 <0>         0.0825
     29 H8          1.3098    5.8699    4.0005 H         1 <0>         0.0821
     30 H9          2.6564    6.1307    5.1589 H         1 <0>         0.0919
     31 H10         0.1229    6.8511    5.8550 H         1 <0>         0.0937
     32 H11         1.1820    6.0577    7.0644 H         1 <0>         0.0857
     33 H12        -1.5855    6.0922    7.8843 H         1 <0>         0.4004
     34 H13        -1.5814    5.0043    9.1646 H         1 <0>         0.4055
     35 H14         1.5410    0.3370    2.9871 H         1 <0>         0.1061
     36 H15         1.9568    1.5610    1.7635 H         1 <0>         0.0856
     37 H16         1.8654    2.0157    3.4820 H         1 <0>         0.0869
@<TRIPOS>BOND
     1    1    2 1
     2    1   23 1
     3    1   24 1
     4    1   25 1
     5    2    7 ar
     6    2    3 ar
     7    3    4 ar
     8    3   26 1
     9    4    5 ar
    10    4   22 1
    11    5    6 ar
    12    5   21 1
    13    6    7 ar
    14    6    9 1
    15    7    8 1
    16    9   10 2
    17    9   11 2
    18    9   12 1
    19   12   16 1
    20   12   13 1
    21   13   14 1
    22   13   27 1
    23   13   28 1
    24   14   15 1
    25   14   29 1
    26   14   30 1
    27   15   16 1
    28   15   31 1
    29   15   32 1
    30   16   17 1
    31   16   18 1
    32   18   19 2
    33   18   20 am
    34   20   33 1
    35   20   34 1
    36   21   35 1
    37   21   36 1
    38   21   37 1
@<TRIPOS>MOLECULE
ZINC37037335
   32    34     0     0     0
SMALL
USER_CHARGES

@<TRIPOS>ATOM
      1 C1         -0.0184    1.5028    0.0103 C.3       1 <0>        -0.1082
      2 C2          0.0021   -0.0041    0.0020 C.2       1 <0>         0.2031
      3 C3         -1.1752   -0.7218    0.0037 C.2       1 <0>        -0.2831
      4 C4         -1.1357   -2.1163   -0.0040 C.2       1 <0>         0.5418
      5 O1         -2.1750   -2.7577   -0.0030 O.2       1 <0>        -0.4953
      6 N1          0.0670   -2.7629   -0.0132 N.am      1 <0>        -0.3798
      7 C5          1.1847   -1.9742   -0.0142 C.2       1 <0>         0.3205
      8 N2          1.1565   -0.6655   -0.0126 N.2       1 <0>        -0.4814
      9 S1          2.5003   -3.1723   -0.0262 S.3       1 <0>         0.1239
     10 C6          1.4813   -4.6386   -0.0291 C.2       1 <0>         0.1398
     11 N3          0.2835   -4.1374   -0.0212 N.2       1 <0>        -0.2256
     12 C7          1.9030   -6.0854   -0.0391 C.3       1 <0>        -0.0319
     13 S2          0.4302   -7.1444   -0.0383 S.3       1 <0>        -0.0426
     14 C8          1.0822   -8.7813   -0.0504 C.ar      1 <0>        -0.1772
     15 C9          2.4546   -8.9832   -0.0520 C.ar      1 <0>        -0.0730
     16 C10         2.9644  -10.2683   -0.0615 C.ar      1 <0>        -0.1492
     17 C11         2.1091  -11.3559   -0.0694 C.ar      1 <0>         0.0155
     18 C12         0.7388  -11.1633   -0.0674 C.ar      1 <0>        -0.1751
     19 C13         0.2196   -9.8778   -0.0525 C.ar      1 <0>         0.2587
     20 N4         -1.1664   -9.6806   -0.0451 N.pl3     1 <0>        -0.8643
     21 Cl1         2.7569  -12.9665   -0.0824 Cl        1 <0>        -0.0629
     22 H1          1.0042    1.8801    0.0026 H         1 <0>         0.0880
     23 H2         -0.5455    1.8639   -0.8728 H         1 <0>         0.0948
     24 H3         -0.5286    1.8543    0.9071 H         1 <0>         0.0949
     25 H4         -2.1243   -0.2064    0.0113 H         1 <0>         0.1738
     26 H5          2.4938   -6.2855   -0.9330 H         1 <0>         0.1392
     27 H6          2.5020   -6.2954    0.8470 H         1 <0>         0.1392
     28 H7          3.1249   -8.1364   -0.0462 H         1 <0>         0.1315
     29 H8          4.0331  -10.4236   -0.0631 H         1 <0>         0.1366
     30 H9          0.0738  -12.0143   -0.0739 H         1 <0>         0.1389
     31 H10        -1.5282   -8.7806   -0.0385 H         1 <0>         0.4043
     32 H11        -1.7649  -10.4439   -0.0466 H         1 <0>         0.4053
@<TRIPOS>BOND
     1    1    2 1
     2    1   22 1
     3    1   23 1
     4    1   24 1
     5    2    8 1
     6    2    3 2
     7    3    4 1
     8    3   25 1
     9    4    5 2
    10    4    6 am
    11    6   11 1
    12    6    7 1
    13    7    8 2
    14    7    9 1
    15    9   10 1
    16   10   11 2
    17   10   12 1
    18   12   13 1
    19   12   26 1
    20   12   27 1
    21   13   14 1
    22   14   19 ar
    23   14   15 ar
    24   15   16 ar
    25   15   28 1
    26   16   17 ar
    27   16   29 1
    28   17   18 ar
    29   17   21 1
    30   18   19 ar
    31   18   30 1
    32   19   20 1
    33   20   31 1
    34   20   32 1
@<TRIPOS>MOLECULE
ZINC47817080
   37    38     0     0     0
SMALL
USER_CHARGES

@<TRIPOS>ATOM
      1 C1         -0.0184    1.5028    0.0103 C.3       1 <0>        -0.1164
      2 C2          0.0021   -0.0041    0.0020 C.ar      1 <0>        -0.0951
      3 C3          0.0056   -0.6834   -1.1972 C.ar      1 <0>        -0.0569
      4 C4          0.0246   -2.0801   -1.2068 C.ar      1 <0>        -0.1568
      5 C5          0.0398   -2.7811    0.0067 C.ar      1 <0>         0.1930
      6 C6          0.0360   -2.0813    1.2048 C.ar      1 <0>        -0.1289
      7 C7          0.0229   -0.6997    1.1995 C.ar      1 <0>        -0.0491
      8 Br1         0.0559   -3.0194    2.8466 Br        1 <0>        -0.0248
      9 O1          0.0578   -4.1377    0.0098 O.3       1 <0>        -0.4639
     10 C8          0.0280   -2.8132   -2.4871 C.2       1 <0>         0.5653
     11 O2          0.0445   -4.0289   -2.4915 O.2       1 <0>        -0.5154
     12 N1          0.0128   -2.1352   -3.6519 N.am      1 <0>        -0.7178
     13 C9          0.0162   -2.8632   -4.9232 C.3       1 <0>         0.1069
     14 C10        -0.0029   -1.8799   -6.0651 C.2       1 <0>         0.5254
     15 O3         -0.0180   -0.6884   -5.8392 O.2       1 <0>        -0.5369
     16 N2         -0.0034   -2.3246   -7.3374 N.am      1 <0>        -0.6157
     17 C11         0.0072   -3.7351   -7.7520 C.3       1 <0>         0.0924
     18 C12         0.0286   -3.7589   -9.2949 C.3       1 <0>        -0.1327
     19 C13         0.6000   -2.3623   -9.6562 C.3       1 <0>        -0.1348
     20 C14        -0.0211   -1.4773   -8.5437 C.3       1 <0>         0.1039
     21 H1          1.0042    1.8801    0.0026 H         1 <0>         0.0777
     22 H2         -0.5455    1.8639   -0.8728 H         1 <0>         0.0738
     23 H3         -0.5286    1.8543    0.9071 H         1 <0>         0.0733
     24 H4         -0.0065   -0.1365   -2.1284 H         1 <0>         0.1384
     25 H5          0.0248   -0.1592    2.1345 H         1 <0>         0.1432
     26 H6          0.9464   -4.5193    0.0064 H         1 <0>         0.3996
     27 H7         -0.0003   -1.1653   -3.6484 H         1 <0>         0.4109
     28 H8          0.9143   -3.4775   -4.9878 H         1 <0>         0.1020
     29 H9         -0.8654   -3.5016   -4.9787 H         1 <0>         0.1021
     30 H10         0.8965   -4.2297   -7.3613 H         1 <0>         0.0750
     31 H11        -0.8890   -4.2359   -7.3859 H         1 <0>         0.0752
     32 H12         0.6842   -4.5498   -9.6594 H         1 <0>         0.0868
     33 H13        -0.9792   -3.8780   -9.6928 H         1 <0>         0.0801
     34 H14         1.6885   -2.3592   -9.6004 H         1 <0>         0.0785
     35 H15         0.2599   -2.0440  -10.6416 H         1 <0>         0.0882
     36 H16        -1.0446   -1.2040   -8.8003 H         1 <0>         0.0724
     37 H17         0.5836   -0.5838   -8.3886 H         1 <0>         0.0815
@<TRIPOS>BOND
     1    1    2 1
     2    1   21 1
     3    1   22 1
     4    1   23 1
     5    2    7 ar
     6    2    3 ar
     7    3    4 ar
     8    3   24 1
     9    4    5 ar
    10    4   10 1
    11    5    6 ar
    12    5    9 1
    13    6    7 ar
    14    6    8 1
    15    7   25 1
    16    9   26 1
    17   10   11 2
    18   10   12 am
    19   12   13 1
    20   12   27 1
    21   13   14 1
    22   13   28 1
    23   13   29 1
    24   14   15 2
    25   14   16 am
    26   16   20 1
    27   16   17 1
    28   17   18 1
    29   17   30 1
    30   17   31 1
    31   18   19 1
    32   18   32 1
    33   18   33 1
    34   19   20 1
    35   19   34 1
    36   19   35 1
    37   20   36 1
    38   20   37 1
@<TRIPOS>MOLECULE
ZINC20086721
   37    40     0     0     0
SMALL
USER_CHARGES

@<TRIPOS>ATOM
      1 C1         -0.0184    1.5028    0.0103 C.3       1 <0>        -0.1033
      2 C2          0.0021   -0.0041    0.0020 C.2       1 <0>        -0.1001
      3 C3          0.0059   -0.6990   -1.1929 C.2       1 <0>        -0.1523
      4 C4          0.0244   -2.0540   -1.1652 C.2       1 <0>        -0.1666
      5 S1          0.0371   -2.3874    0.5887 S.3       1 <0>         0.0312
      6 C5          0.0226   -0.6981    1.1661 C.2       1 <0>        -0.1475
      7 C6          0.0297   -0.1787    2.5808 C.3       1 <0>         0.1367
      8 H1          0.0153    0.9111    2.5651 H         1 <0>         0.1218
      9 C7          1.2750   -0.6499    3.2777 C.2       1 <0>        -0.2741
     10 C8          1.2271   -1.6809    4.1570 C.2       1 <0>         0.4388
     11 O1          0.0726   -2.3106    4.4298 O.3       1 <0>        -0.2208
     12 C9         -1.1091   -1.7049    4.1762 C.2       1 <0>         0.0930
     13 C10        -1.1930   -0.6837    3.3042 C.2       1 <0>        -0.1791
     14 C11        -2.4848   -0.0365    3.0379 C.2       1 <0>         0.4375
     15 O2         -2.5476    0.8872    2.2495 O.2       1 <0>        -0.4036
     16 C12        -3.7087   -0.5030    3.7234 C.ar      1 <0>        -0.1160
     17 C13        -4.9369    0.0976    3.4784 C.ar      1 <0>        -0.0626
     18 C14        -6.0701   -0.3589    4.1338 C.ar      1 <0>        -0.0886
     19 C15        -5.9866   -1.4076    5.0295 C.ar      1 <0>        -0.0976
     20 C16        -4.7683   -2.0171    5.2848 C.ar      1 <0>        -0.0541
     21 C17        -3.6233   -1.5701    4.6351 C.ar      1 <0>        -0.1213
     22 C18        -2.3199   -2.1943    4.8839 C.2       1 <0>         0.4466
     23 O3         -2.2330   -3.1158    5.6700 O.2       1 <0>        -0.3938
     24 N1          2.3805   -2.0892    4.7797 N.pl3     1 <0>        -0.8212
     25 C19         2.5246   -0.0033    3.0108 C.1       1 <0>         0.2735
     26 N2          3.5158    0.5096    2.7991 N.1       1 <0>        -0.4319
     27 H2          1.0042    1.8801    0.0026 H         1 <0>         0.0667
     28 H3         -0.5455    1.8639   -0.8728 H         1 <0>         0.0668
     29 H4         -0.5286    1.8543    0.9071 H         1 <0>         0.0740
     30 H5         -0.0059   -0.1702   -2.1345 H         1 <0>         0.1349
     31 H6          0.0298   -2.7512   -1.9900 H         1 <0>         0.1862
     32 H7         -5.0088    0.9179    2.7796 H         1 <0>         0.1482
     33 H8         -7.0249    0.1083    3.9427 H         1 <0>         0.1426
     34 H9         -6.8762   -1.7545    5.5340 H         1 <0>         0.1434
     35 H10        -4.7087   -2.8365    5.9858 H         1 <0>         0.1484
     36 H11         3.2193   -1.6410    4.5891 H         1 <0>         0.4288
     37 H12         2.3565   -2.8258    5.4103 H         1 <0>         0.4154
@<TRIPOS>BOND
     1    1    2 1
     2    1   27 1
     3    1   28 1
     4    1   29 1
     5    2    6 2
     6    2    3 1
     7    3    4 2
     8    3   30 1
     9    4    5 1
    10    4   31 1
    11    5    6 1
    12    6    7 1
    13    7    8 1
    14    7   13 1
    15    7    9 1
    16    9   10 2
    17    9   25 1
    18   10   11 1
    19   10   24 1
    20   11   12 1
    21   12   22 1
    22   12   13 2
    23   13   14 1
    24   14   15 2
    25   14   16 1
    26   16   21 ar
    27   16   17 ar
    28   17   18 ar
    29   17   32 1
    30   18   19 ar
    31   18   33 1
    32   19   20 ar
    33   19   34 1
    34   20   21 ar
    35   20   35 1
    36   21   22 1
    37   22   23 2
    38   24   36 1
    39   24   37 1
    40   25   26 3
@<TRIPOS>MOLECULE
ZINC67537206
   45    46     0     0     0
SMALL
USER_CHARGES

@<TRIPOS>ATOM
      1 C1         -0.1332    1.4947    0.0281 C.3       1 <0>        -0.1141
      2 C2         -0.0829   -0.0114    0.0130 C.ar      1 <0>        -0.0810
      3 C3         -1.1166   -0.7305   -0.5587 C.ar      1 <0>        -0.1018
      4 C4         -1.0739   -2.1110   -0.5744 C.ar      1 <0>        -0.0910
      5 C5          0.0085   -2.7773   -0.0158 C.ar      1 <0>         0.1636
      6 C6          1.0460   -2.0524    0.5575 C.ar      1 <0>        -0.0268
      7 C7          0.9994   -0.6709    0.5656 C.ar      1 <0>        -0.1038
      8 Cl1         2.4016   -2.8804    1.2579 Cl        1 <0>        -0.0381
      9 N1          0.0544   -4.1765   -0.0298 N.am      1 <0>        -0.6813
     10 C8          0.4732   -4.8480    1.0611 C.2       1 <0>         0.6989
     11 O1          0.7503   -4.2426    2.0785 O.2       1 <0>        -0.5500
     12 N2          0.5849   -6.1907    1.0244 N.am      1 <0>        -0.7283
     13 C9          1.0401   -6.9206    2.2102 C.3       1 <0>         0.1474
     14 H1          1.7816   -6.3240    2.7416 H         1 <0>         0.1138
     15 C10        -0.1514   -7.1916    3.1309 C.3       1 <0>        -0.1617
     16 C11         1.6569   -8.2293    1.7885 C.2       1 <0>         0.5162
     17 O2          1.3344   -8.7408    0.7371 O.2       1 <0>        -0.5277
     18 N3          2.5669   -8.8313    2.5796 N.am      1 <0>        -0.6121
     19 C12         2.8614   -8.2706    3.8992 C.3       1 <0>         0.0970
     20 C13         2.4043   -9.2517    4.9847 C.3       1 <0>        -0.1048
     21 S1          3.2340  -10.8466    4.7136 S.3       1 <0>        -0.2490
     22 C14         2.8374  -11.2299    2.9812 C.3       1 <0>        -0.1008
     23 C15         3.2443  -10.0413    2.1112 C.3       1 <0>         0.1087
     24 C16        -2.2016   -2.8933   -1.1968 C.3       1 <0>        -0.1147
     25 H2          0.3339    1.8829   -0.8770 H         1 <0>         0.0737
     26 H3         -1.1717    1.8231    0.0705 H         1 <0>         0.0699
     27 H4          0.4017    1.8674    0.9016 H         1 <0>         0.0692
     28 H5         -1.9585   -0.2121   -0.9931 H         1 <0>         0.1325
     29 H6          1.8072   -0.1063    1.0073 H         1 <0>         0.1351
     30 H7         -0.2153   -4.6627   -0.8247 H         1 <0>         0.4090
     31 H8          0.3638   -6.6737    0.2127 H         1 <0>         0.4061
     32 H9          0.1998   -7.6552    4.0527 H         1 <0>         0.0714
     33 H10        -0.6512   -6.2515    3.3645 H         1 <0>         0.0810
     34 H11        -0.8517   -7.8610    2.6314 H         1 <0>         0.0660
     35 H12         3.9342   -8.1013    3.9909 H         1 <0>         0.0929
     36 H13         2.3328   -7.3248    4.0183 H         1 <0>         0.1031
     37 H14         2.6728   -8.8620    5.9666 H         1 <0>         0.1228
     38 H15         1.3243   -9.3864    4.9247 H         1 <0>         0.0895
     39 H16         3.3858  -12.1185    2.6683 H         1 <0>         0.1204
     40 H17         1.7661  -11.4042    2.8811 H         1 <0>         0.0881
     41 H18         2.9628  -10.2380    1.0767 H         1 <0>         0.1072
     42 H19         4.3235   -9.9009    2.1737 H         1 <0>         0.0880
     43 H20        -1.9905   -3.0567   -2.2536 H         1 <0>         0.0745
     44 H21        -2.2983   -3.8549   -0.6928 H         1 <0>         0.0665
     45 H22        -3.1316   -2.3342   -1.0943 H         1 <0>         0.0747
@<TRIPOS>BOND
     1    1    2 1
     2    1   25 1
     3    1   26 1
     4    1   27 1
     5    2    7 ar
     6    2    3 ar
     7    3    4 ar
     8    3   28 1
     9    4    5 ar
    10    4   24 1
    11    5    6 ar
    12    5    9 1
    13    6    7 ar
    14    6    8 1
    15    7   29 1
    16    9   10 am
    17    9   30 1
    18   10   11 2
    19   10   12 am
    20   12   13 1
    21   12   31 1
    22   13   14 1
    23   13   15 1
    24   13   16 1
    25   15   32 1
    26   15   33 1
    27   15   34 1
    28   16   17 2
    29   16   18 am
    30   18   23 1
    31   18   19 1
    32   19   20 1
    33   19   35 1
    34   19   36 1
    35   20   21 1
    36   20   37 1
    37   20   38 1
    38   21   22 1
    39   22   23 1
    40   22   39 1
    41   22   40 1
    42   23   41 1
    43   23   42 1
    44   24   43 1
    45   24   44 1
    46   24   45 1
@<TRIPOS>MOLECULE
ZINC20686794
   69    72     0     0     0
SMALL
USER_CHARGES
(2R)-N-(1-adamantylcarbamoyl)-2-[[2-[(2,3-dimethylphenyl)amino]-2-oxo-ethyl]-methyl-amino]propanamide
@<TRIPOS>ATOM
      1 C1         -9.4928    0.5112   11.7508 C.3       1 <0>        -0.1208
      2 C2         -9.6093    1.2269   10.4297 C.ar      1 <0>        -0.0627
      3 C3        -10.2403    2.4558   10.3630 C.ar      1 <0>        -0.1211
      4 C4        -10.3488    3.1158    9.1530 C.ar      1 <0>        -0.0998
      5 C5         -9.8264    2.5495    8.0064 C.ar      1 <0>        -0.1360
      6 C6         -9.1923    1.3159    8.0700 C.ar      1 <0>         0.1329
      7 C7         -9.0904    0.6526    9.2860 C.ar      1 <0>        -0.1089
      8 C8         -8.4084   -0.6893    9.3585 C.3       1 <0>        -0.1127
      9 N1         -8.6620    0.7396    6.9104 N.am      1 <0>        -0.6518
     10 C9         -9.0904    1.1466    5.6991 C.2       1 <0>         0.5080
     11 O1        -10.0037    1.9402    5.6139 O.2       1 <0>        -0.5162
     12 C10        -8.4347    0.6156    4.4504 C.3       1 <0>        -0.0384
     13 N2         -9.0778    1.2077    3.2699 N.4       1 <0>        -0.3783
     14 C11       -10.4719    0.7603    3.1499 C.3       1 <0>        -0.0563
     15 C12        -8.3201    0.9027    2.0490 C.3       1 <0>         0.0116
     16 H1         -8.9324    1.2129    1.1894 H         1 <0>         0.1731
     17 C13        -8.0209   -0.5968    1.9957 C.3       1 <0>        -0.1843
     18 C14        -7.0250    1.6734    2.0558 C.2       1 <0>         0.5162
     19 O2         -6.7023    2.3077    3.0372 O.2       1 <0>        -0.4594
     20 N3         -6.2256    1.6574    0.9708 N.am      1 <0>        -0.6890
     21 C15        -5.0675    2.3466    0.9769 C.2       1 <0>         0.6953
     22 O3         -4.7439    2.9825    1.9608 O.2       1 <0>        -0.5170
     23 N4         -4.2681    2.3307   -0.1081 N.am      1 <0>        -0.7324
     24 C16        -3.0091    3.0799   -0.1014 C.3       1 <0>         0.2024
     25 C17        -2.2986    2.8951   -1.4438 C.3       1 <0>        -0.1137
     26 C18        -0.9838    3.6775   -1.4369 C.3       1 <0>        -0.0812
     27 C19        -0.0879    3.1594   -0.3100 C.3       1 <0>        -0.1143
     28 C20        -0.7985    3.3441    1.0323 C.3       1 <0>        -0.0828
     29 C21        -2.1132    2.5617    1.0254 C.3       1 <0>        -0.1222
     30 C22        -1.0901    4.8295    1.2548 C.3       1 <0>        -0.1121
     31 C23        -1.9860    5.3477    0.1279 C.3       1 <0>        -0.0830
     32 C24        -1.2755    5.1629   -1.2144 C.3       1 <0>        -0.1144
     33 C25        -3.3008    4.5653    0.1210 C.3       1 <0>        -0.1229
     34 H2         -9.9605    1.1189   12.5395 H         1 <0>         0.0714
     35 H3         -8.4307    0.3540   11.9902 H         1 <0>         0.0744
     36 H4        -10.0021   -0.4617   11.6869 H         1 <0>         0.0738
     37 H5        -10.6496    2.9006   11.2580 H         1 <0>         0.1286
     38 H6        -10.8422    4.0752    9.1042 H         1 <0>         0.1296
     39 H7         -9.9109    3.0659    7.0616 H         1 <0>         0.1499
     40 H8         -8.0637   -0.9801    8.3552 H         1 <0>         0.0523
     41 H9         -9.1177   -1.4412    9.7348 H         1 <0>         0.0798
     42 H10        -7.5461   -0.6260   10.0385 H         1 <0>         0.0796
     43 H11        -7.8955   -0.0456    6.9875 H         1 <0>         0.4422
     44 H12        -7.3667    0.8788    4.4568 H         1 <0>         0.1701
     45 H13        -8.5425   -0.4786    4.4165 H         1 <0>         0.1591
     46 H14       -10.9284    1.2177    2.2597 H         1 <0>         0.1305
     47 H15       -11.0327    1.0634    4.0463 H         1 <0>         0.1460
     48 H16       -10.4984   -0.3352    3.0538 H         1 <0>         0.1208
     49 H17        -7.4535   -0.8252    1.0814 H         1 <0>         0.1135
     50 H18        -8.9662   -1.1593    1.9908 H         1 <0>         0.1024
     51 H19        -7.4279   -0.8839    2.8766 H         1 <0>         0.0906
     52 H20        -6.5184    1.0818    0.0803 H         1 <0>         0.4418
     53 H21        -4.5609    1.7552   -0.9986 H         1 <0>         0.4194
     54 H22        -2.0890    1.8272   -1.6037 H         1 <0>         0.0709
     55 H23        -2.9427    3.2676   -2.2539 H         1 <0>         0.0710
     56 H24        -0.4730    3.5446   -2.4020 H         1 <0>         0.0797
     57 H25         0.1219    2.0915   -0.4699 H         1 <0>         0.0640
     58 H26         0.8573    3.7220   -0.3050 H         1 <0>         0.0691
     59 H27        -0.1545    2.9714    1.8424 H         1 <0>         0.0747
     60 H28        -2.6240    2.6945    1.9905 H         1 <0>         0.0833
     61 H29        -1.9035    1.4938    0.8655 H         1 <0>         0.0598
     62 H30        -1.6009    4.9623    2.2199 H         1 <0>         0.0644
     63 H31        -0.1448    5.3920    1.2598 H         1 <0>         0.0670
     64 H32        -2.1956    6.4156    0.2877 H         1 <0>         0.0750
     65 H33        -0.3302    5.7254   -1.2094 H         1 <0>         0.0691
     66 H34        -1.9196    5.5355   -2.0245 H         1 <0>         0.0642
     67 H35        -3.9449    4.9378   -0.6892 H         1 <0>         0.0601
     68 H36        -3.8117    4.6982    1.0861 H         1 <0>         0.0836
     69 H37        -9.0832    2.2999    3.4002 H         1 <0>         0.4602
@<TRIPOS>BOND
     1    1    2 1
     2    1   34 1
     3    1   35 1
     4    1   36 1
     5    2    7 ar
     6    2    3 ar
     7    3    4 ar
     8    3   37 1
     9    4    5 ar
    10    4   38 1
    11    5    6 ar
    12    5   39 1
    13    6    7 ar
    14    6    9 1
    15    7    8 1
    16    8   40 1
    17    8   41 1
    18    8   42 1
    19    9   10 am
    20    9   43 1
    21   10   11 2
    22   10   12 1
    23   12   13 1
    24   12   44 1
    25   12   45 1
    26   13   14 1
    27   13   15 1
    28   13   69 1
    29   14   46 1
    30   14   47 1
    31   14   48 1
    32   15   16 1
    33   15   17 1
    34   15   18 1
    35   17   49 1
    36   17   50 1
    37   17   51 1
    38   18   19 2
    39   18   20 am
    40   20   21 am
    41   20   52 1
    42   21   22 2
    43   21   23 am
    44   23   24 1
    45   23   53 1
    46   24   29 1
    47   24   33 1
    48   24   25 1
    49   25   26 1
    50   25   54 1
    51   25   55 1
    52   26   32 1
    53   26   27 1
    54   26   56 1
    55   27   28 1
    56   27   57 1
    57   27   58 1
    58   28   29 1
    59   28   30 1
    60   28   59 1
    61   29   60 1
    62   29   61 1
    63   30   31 1
    64   30   62 1
    65   30   63 1
    66   31   32 1
    67   31   33 1
    68   31   64 1
    69   32   65 1
    70   32   66 1
    71   33   67 1
    72   33   68 1
@<TRIPOS>MOLECULE
ZINC39533664
   68    71     0     0     0
SMALL
USER_CHARGES

@<TRIPOS>ATOM
      1 C1         -0.3440    3.2734    0.9831 C.3       1 <0>        -0.1406
      2 C2         -0.4123    1.9030    0.3061 C.3       1 <0>        -0.5911
      3 C3          0.1545    2.0057   -1.1114 C.3       1 <0>        -0.1473
      4 S1          0.5615    0.7074    1.2615 S.o2      1 <0>         2.6102
      5 O1          0.3653   -0.6037    0.7499 O.2       1 <0>        -0.9595
      6 O2          1.8720    1.2097    1.4837 O.2       1 <0>        -0.9481
      7 N1         -0.1426    0.6859    2.7602 N.pl3     1 <0>        -1.1109
      8 C4         -1.5141    0.1958    2.9182 C.3       1 <0>         0.1202
      9 C5         -1.7926   -0.0721    4.3986 C.3       1 <0>         0.1274
     10 H1         -1.7566    0.8670    4.9508 H         1 <0>         0.1136
     11 C6         -3.1584   -0.6911    4.5488 C.ar      1 <0>        -0.1427
     12 C7         -4.0469   -0.1823    5.4788 C.ar      1 <0>        -0.0944
     13 C8         -5.2991   -0.7453    5.6207 C.ar      1 <0>        -0.1091
     14 C9         -5.6674   -1.8282    4.8249 C.ar      1 <0>        -0.0181
     15 C10        -4.7683   -2.3366    3.8897 C.ar      1 <0>        -0.1114
     16 C11        -3.5208   -1.7623    3.7523 C.ar      1 <0>        -0.1150
     17 C12        -7.0121   -2.4380    4.9732 C.ar      1 <0>        -0.0660
     18 C13        -7.9131   -1.9262    5.9047 C.ar      1 <0>        -0.1057
     19 C14        -9.1626   -2.4969    6.0381 C.ar      1 <0>        -0.1164
     20 C15        -9.5209   -3.5753    5.2495 C.ar      1 <0>        -0.1072
     21 C16        -8.6303   -4.0878    4.3235 C.ar      1 <0>        -0.1169
     22 C17        -7.3804   -3.5208    4.1774 C.ar      1 <0>        -0.1063
     23 N2         -0.7772   -0.9915    4.9293 N.3       1 <0>        -0.5175
     24 C18        -0.8262   -2.2869    4.2368 C.3       1 <0>        -0.0020
     25 C19         0.2829   -3.1927    4.7763 C.3       1 <0>        -0.0039
     26 N3          0.1001   -3.3833    6.2212 N.4       1 <0>        -0.5078
     27 C20         0.1761   -2.0838    6.9018 C.3       1 <0>         0.0926
     28 H2          1.1460   -1.6269    6.7052 H         1 <0>         0.1604
     29 C21        -0.9340   -1.1689    6.3799 C.3       1 <0>         0.0361
     30 C22         0.0063   -2.2833    8.3858 C.ar      1 <0>        -0.1667
     31 C23        -0.5775   -3.4400    8.8656 C.ar      1 <0>        -0.1151
     32 C24        -0.7340   -3.6234   10.2269 C.ar      1 <0>        -0.1086
     33 C25        -0.3064   -2.6504   11.1117 C.ar      1 <0>        -0.0764
     34 C26         0.2783   -1.4925   10.6371 C.ar      1 <0>        -0.1289
     35 C27         0.4412   -1.3084    9.2715 C.ar      1 <0>         0.1421
     36 O3          1.0213   -0.1725    8.8023 O.3       1 <0>        -0.4908
     37 H3          0.6935    3.6043    1.0298 H         1 <0>         0.0767
     38 H4         -0.9291    3.9918    0.4090 H         1 <0>         0.0804
     39 H5         -0.7478    3.2002    1.9929 H         1 <0>         0.0690
     40 H6         -1.4498    1.5721    0.2594 H         1 <0>         0.1331
     41 H7          1.1920    2.3367   -1.0648 H         1 <0>         0.0747
     42 H8          0.1059    1.0295   -1.5937 H         1 <0>         0.0730
     43 H9         -0.4306    2.7242   -1.6855 H         1 <0>         0.0865
     44 H10         0.3531    0.9978    3.5334 H         1 <0>         0.4240
     45 H11        -2.2129    0.9454    2.5469 H         1 <0>         0.0818
     46 H12        -1.6374   -0.7277    2.3524 H         1 <0>         0.0835
     47 H13        -3.7603    0.6568    6.0954 H         1 <0>         0.1270
     48 H14        -5.9920   -0.3475    6.3473 H         1 <0>         0.1308
     49 H15        -5.0485   -3.1761    3.2706 H         1 <0>         0.1309
     50 H16        -2.8249   -2.1526    3.0245 H         1 <0>         0.1295
     51 H17        -7.6340   -1.0846    6.5214 H         1 <0>         0.1250
     52 H18        -9.8618   -2.1010    6.7598 H         1 <0>         0.1285
     53 H19       -10.4996   -4.0191    5.3574 H         1 <0>         0.1279
     54 H20        -8.9150   -4.9301    3.7106 H         1 <0>         0.1283
     55 H21        -6.6873   -3.9189    3.4510 H         1 <0>         0.1246
     56 H22        -1.7950   -2.7556    4.4100 H         1 <0>         0.0795
     57 H23        -0.6822   -2.1333    3.1673 H         1 <0>         0.1335
     58 H24         0.2394   -4.1591    4.2740 H         1 <0>         0.1434
     59 H25         1.2523   -2.7301    4.5906 H         1 <0>         0.1430
     60 H26        -0.8021   -3.8008    6.3937 H         1 <0>         0.4220
     61 H27        -0.8686   -0.1995    6.8739 H         1 <0>         0.1189
     62 H28        -1.9045   -1.6191    6.5885 H         1 <0>         0.0698
     63 H29        -0.9123   -4.2013    8.1767 H         1 <0>         0.1186
     64 H30        -1.1913   -4.5279   10.6000 H         1 <0>         0.1390
     65 H31        -0.4301   -2.7959   12.1747 H         1 <0>         0.1414
     66 H32         0.6120   -0.7329   11.3285 H         1 <0>         0.1443
     67 H33         0.3968    0.5449    8.6278 H         1 <0>         0.3992
     68 H34         0.8244   -3.9905    6.5745 H         1 <0>         0.4341
@<TRIPOS>BOND
     1    1    2 1
     2    1   37 1
     3    1   38 1
     4    1   39 1
     5    2    3 1
     6    2    4 1
     7    2   40 1
     8    3   41 1
     9    3   42 1
    10    3   43 1
    11    4    5 2
    12    4    6 2
    13    4    7 1
    14    7    8 1
    15    7   44 1
    16    8    9 1
    17    8   45 1
    18    8   46 1
    19    9   10 1
    20    9   11 1
    21    9   23 1
    22   11   16 ar
    23   11   12 ar
    24   12   13 ar
    25   12   47 1
    26   13   14 ar
    27   13   48 1
    28   14   15 ar
    29   14   17 1
    30   15   16 ar
    31   15   49 1
    32   16   50 1
    33   17   22 ar
    34   17   18 ar
    35   18   19 ar
    36   18   51 1
    37   19   20 ar
    38   19   52 1
    39   20   21 ar
    40   20   53 1
    41   21   22 ar
    42   21   54 1
    43   22   55 1
    44   23   29 1
    45   23   24 1
    46   24   25 1
    47   24   56 1
    48   24   57 1
    49   25   26 1
    50   25   58 1
    51   25   59 1
    52   26   27 1
    53   26   60 1
    54   26   68 1
    55   27   28 1
    56   27   29 1
    57   27   30 1
    58   29   61 1
    59   29   62 1
    60   30   35 ar
    61   30   31 ar
    62   31   32 ar
    63   31   63 1
    64   32   33 ar
    65   32   64 1
    66   33   34 ar
    67   33   65 1
    68   34   35 ar
    69   34   66 1
    70   35   36 1
    71   36   67 1
@<TRIPOS>MOLECULE
ZINC44714706
   66    71     0     0     0
SMALL
USER_CHARGES

@<TRIPOS>ATOM
      1 C1          0.3513    0.9894    1.8329 C.ar      1 <0>        -0.1134
      2 C2          1.5049    1.7487    1.6967 C.ar      1 <0>        -0.0928
      3 C3          2.5889    1.2288    1.0173 C.ar      1 <0>        -0.0702
      4 C4          2.5123   -0.0395    0.4817 C.ar      1 <0>        -0.1494
      5 C5          1.3543   -0.8299    0.6057 C.ar      1 <0>        -0.0581
      6 C6          0.2650   -0.2737    1.3035 C.ar      1 <0>        -0.0702
      7 C7          1.4916   -2.1393   -0.0365 C.2       1 <0>        -0.1700
      8 C8          2.6690   -2.4264   -0.6504 C.2       1 <0>        -0.1914
      9 S1          3.6264   -1.0660   -0.4368 S.3       1 <0>         0.1973
     10 C9          0.3913   -3.1112   -0.0170 C.2       1 <0>         0.6043
     11 O1         -0.7574   -2.7275    0.1002 O.2       1 <0>        -0.5260
     12 N1          0.6537   -4.4285   -0.1288 N.am      1 <0>        -0.6201
     13 C10         1.9787   -5.0916   -0.1559 C.3       1 <0>         0.1009
     14 C11         1.7873   -6.3803    0.6749 C.3       1 <0>        -0.1141
     15 H1          2.0953   -6.2155    1.7074 H         1 <0>         0.1136
     16 C12         0.2787   -6.6711    0.6061 C.3       1 <0>        -0.0723
     17 C13        -0.3182   -5.5419   -0.2461 C.3       1 <0>         0.1094
     18 C14        -0.3288   -6.6453    2.0053 C.3       1 <0>        -0.1341
     19 C15        -1.8174   -6.9933    1.9168 C.3       1 <0>        -0.0113
     20 N2         -1.9758   -8.3237    1.3172 N.4       1 <0>        -0.5041
     21 C16        -1.4728   -8.3148   -0.0617 C.3       1 <0>        -0.0078
     22 C17         0.0304   -8.0224   -0.0570 C.3       1 <0>        -0.1466
     23 C18         2.5711   -7.5161    0.0695 C.2       1 <0>         0.5193
     24 O2          2.8446   -7.5022   -1.1120 O.2       1 <0>        -0.5188
     25 N3          2.9682   -8.5474    0.8410 N.am      1 <0>        -0.7285
     26 C19         3.7302   -9.6516    0.2525 C.3       1 <0>         0.1197
     27 C20         4.0531  -10.6828    1.3357 C.3       1 <0>        -0.0499
     28 C21         4.8369  -11.8186    0.7303 C.2       1 <0>        -0.1779
     29 C22         4.3382  -12.9767    0.2698 C.2       1 <0>         0.0705
     30 N4          5.3506  -13.7642   -0.2066 N.pl3     1 <0>        -0.5904
     31 H2          5.2360  -14.6476   -0.5905 H         1 <0>         0.4214
     32 C23         6.5570  -13.1151   -0.0605 C.ar      1 <0>         0.0994
     33 C24         6.2869  -11.8657    0.5269 C.ar      1 <0>        -0.0911
     34 C25         7.3324  -10.9789    0.7911 C.ar      1 <0>        -0.0645
     35 C26         8.6241  -11.3337    0.4703 C.ar      1 <0>        -0.0546
     36 C27         8.8893  -12.5662   -0.1130 C.ar      1 <0>        -0.0873
     37 C28         7.8691  -13.4550   -0.3717 C.ar      1 <0>        -0.1124
     38 Cl1         9.9276  -10.2345    0.7961 Cl        1 <0>        -0.0658
     39 H3         -0.4923    1.3984    2.3690 H         1 <0>         0.1321
     40 H4          1.5545    2.7412    2.1197 H         1 <0>         0.1391
     41 H5          3.4909    1.8122    0.9058 H         1 <0>         0.1369
     42 H6         -0.6440   -0.8446    1.4229 H         1 <0>         0.1348
     43 H7          2.9328   -3.3378   -1.1664 H         1 <0>         0.1957
     44 H8          2.2596   -5.3378   -1.1799 H         1 <0>         0.1023
     45 H9          2.7331   -4.4523    0.3028 H         1 <0>         0.0985
     46 H10        -1.2894   -5.2421    0.1475 H         1 <0>         0.0908
     47 H11        -0.4092   -5.8596   -1.2848 H         1 <0>         0.0846
     48 H12         0.1787   -7.3753    2.6359 H         1 <0>         0.0966
     49 H13        -0.2126   -5.6499    2.4342 H         1 <0>         0.1184
     50 H14        -2.2507   -6.9918    2.9170 H         1 <0>         0.1401
     51 H15        -2.3271   -6.2537    1.2994 H         1 <0>         0.1344
     52 H16        -1.4573   -8.9991    1.8586 H         1 <0>         0.4273
     53 H17        -1.6520   -9.2875   -0.5199 H         1 <0>         0.1392
     54 H18        -1.9908   -7.5440   -0.6322 H         1 <0>         0.1333
     55 H19         0.3996   -7.9980   -1.0823 H         1 <0>         0.1249
     56 H20         0.5510   -8.8019    0.4994 H         1 <0>         0.0986
     57 H21         2.7495   -8.5585    1.7860 H         1 <0>         0.3999
     58 H22         3.1394  -10.1227   -0.5331 H         1 <0>         0.0717
     59 H23         4.6580   -9.2674   -0.1715 H         1 <0>         0.0754
     60 H24         4.6439  -10.2117    2.1212 H         1 <0>         0.0793
     61 H25         3.1253  -11.0670    1.7596 H         1 <0>         0.0745
     62 H26         3.2925  -13.2470    0.2749 H         1 <0>         0.1710
     63 H27         7.1295  -10.0198    1.2441 H         1 <0>         0.1311
     64 H28         9.9062  -12.8330   -0.3600 H         1 <0>         0.1398
     65 H29         8.0866  -14.4099   -0.8270 H         1 <0>         0.1327
     66 H30        -2.9527   -8.5764    1.3158 H         1 <0>         0.4343
@<TRIPOS>BOND
     1    1    6 ar
     2    1    2 ar
     3    1   39 1
     4    2    3 ar
     5    2   40 1
     6    3    4 ar
     7    3   41 1
     8    4    9 1
     9    4    5 ar
    10    5    6 ar
    11    5    7 1
    12    6   42 1
    13    7    8 2
    14    7   10 1
    15    8    9 1
    16    8   43 1
    17   10   11 2
    18   10   12 am
    19   12   17 1
    20   12   13 1
    21   13   14 1
    22   13   44 1
    23   13   45 1
    24   14   15 1
    25   14   16 1
    26   14   23 1
    27   16   22 1
    28   16   17 1
    29   16   18 1
    30   17   46 1
    31   17   47 1
    32   18   19 1
    33   18   48 1
    34   18   49 1
    35   19   20 1
    36   19   50 1
    37   19   51 1
    38   20   21 1
    39   20   52 1
    40   20   66 1
    41   21   22 1
    42   21   53 1
    43   21   54 1
    44   22   55 1
    45   22   56 1
    46   23   24 2
    47   23   25 am
    48   25   26 1
    49   25   57 1
    50   26   27 1
    51   26   58 1
    52   26   59 1
    53   27   28 1
    54   27   60 1
    55   27   61 1
    56   28   33 1
    57   28   29 2
    58   29   30 1
    59   29   62 1
    60   30   31 1
    61   30   32 1
    62   32   37 ar
    63   32   33 ar
    64   33   34 ar
    65   34   35 ar
    66   34   63 1
    67   35   36 ar
    68   35   38 1
    69   36   37 ar
    70   36   64 1
    71   37   65 1
@<TRIPOS>MOLECULE
ZINC60331551
   62    65     0     0     0
SMALL
USER_CHARGES

@<TRIPOS>ATOM
      1 C1          1.8079    2.5752   -1.8640 C.3       1 <0>        -0.1528
      2 C2          1.2685    1.2348   -1.3608 C.3       1 <0>        -0.0600
      3 C3          1.7215    0.1327   -2.2834 C.2       1 <0>         0.0994
      4 C4          2.8737   -0.5828   -2.1439 C.2       1 <0>        -0.2043
      5 C5          2.8883   -1.5394   -3.2696 C.ar      1 <0>        -0.1046
      6 C6          3.7701   -2.5295   -3.6900 C.ar      1 <0>        -0.0827
      7 C7          3.4797   -3.2669   -4.8179 C.ar      1 <0>        -0.1255
      8 C8          2.3149   -3.0228   -5.5300 C.ar      1 <0>        -0.0933
      9 C9          1.4342   -2.0438   -5.1225 C.ar      1 <0>        -0.0947
     10 C10         1.7096   -1.2908   -3.9874 C.ar      1 <0>         0.0509
     11 O1          1.0500   -0.2949   -3.3601 O.3       1 <0>        -0.1791
     12 C11         3.8871   -0.4335   -1.0960 C.2       1 <0>         0.0746
     13 C12         4.3245   -1.5201   -0.4178 C.2       1 <0>        -0.2553
     14 C13         5.3036   -1.3758    0.5946 C.2       1 <0>         0.5565
     15 O2          5.7522   -0.2740    0.8552 O.2       1 <0>        -0.5110
     16 N1          5.7391   -2.4577    1.2699 N.am      1 <0>        -0.6904
     17 C14         6.7725   -2.3301    2.2031 C.ar      1 <0>         0.1743
     18 C15         6.8798   -1.1764    2.9695 C.ar      1 <0>        -0.1163
     19 C16         7.9016   -1.0536    3.8902 C.ar      1 <0>        -0.0646
     20 C17         8.8176   -2.0775    4.0498 C.ar      1 <0>        -0.1276
     21 C18         8.7136   -3.2270    3.2886 C.ar      1 <0>        -0.0733
     22 C19         7.6906   -3.3587    2.3699 C.ar      1 <0>        -0.1901
     23 C20         7.5741   -4.6148    1.5455 C.3       1 <0>         0.0470
     24 N2          8.1379   -4.3780    0.2098 N.4       1 <0>        -0.3831
     25 C21         9.5768   -4.1129    0.3278 C.3       1 <0>        -0.0139
     26 C22        10.1537   -3.7857   -1.0512 C.3       1 <0>        -0.1421
     27 C23         9.9274   -4.9754   -1.9886 C.3       1 <0>        -0.1306
     28 C24         8.4297   -5.2898   -2.0458 C.3       1 <0>        -0.1335
     29 H1          7.8952   -4.4398   -2.4698 H         1 <0>         0.1207
     30 C25         7.9167   -5.5613   -0.6299 C.3       1 <0>         0.0078
     31 C26         8.2035   -6.5064   -2.9059 C.2       1 <0>         0.5296
     32 O3          7.6795   -7.4934   -2.4345 O.2       1 <0>        -0.5312
     33 N3          8.5834   -6.4977   -4.1989 N.am      1 <0>        -0.8419
     34 H2          2.8972    2.5437   -1.8850 H         1 <0>         0.0617
     35 H3          1.4304    2.7646   -2.8689 H         1 <0>         0.0645
     36 H4          1.4803    3.3724   -1.1967 H         1 <0>         0.0768
     37 H5          1.6460    1.0455   -0.3559 H         1 <0>         0.1015
     38 H6          0.1792    1.2663   -1.3397 H         1 <0>         0.0958
     39 H7          4.6776   -2.7192   -3.1360 H         1 <0>         0.1202
     40 H8          4.1613   -4.0367   -5.1483 H         1 <0>         0.1305
     41 H9          2.0959   -3.6053   -6.4127 H         1 <0>         0.1404
     42 H10         0.5302   -1.8624   -5.6848 H         1 <0>         0.1381
     43 H11         4.2849    0.5436   -0.8649 H         1 <0>         0.1434
     44 H12         3.9267   -2.4972   -0.6490 H         1 <0>         0.1311
     45 H13         5.3357   -3.3250    1.1086 H         1 <0>         0.4089
     46 H14         6.1651   -0.3764    2.8452 H         1 <0>         0.1513
     47 H15         7.9858   -0.1568    4.4861 H         1 <0>         0.1393
     48 H16         9.6160   -1.9787    4.7703 H         1 <0>         0.1378
     49 H17         9.4307   -4.0246    3.4154 H         1 <0>         0.1365
     50 H18         8.1214   -5.4215    2.0331 H         1 <0>         0.1436
     51 H19         6.5241   -4.8924    1.4526 H         1 <0>         0.1304
     52 H20         9.7364   -3.2680    0.9977 H         1 <0>         0.1352
     53 H21        10.0763   -4.9941    0.7303 H         1 <0>         0.1327
     54 H22         9.6550   -2.9044   -1.4546 H         1 <0>         0.0897
     55 H23        11.2225   -3.5910   -0.9618 H         1 <0>         0.1197
     56 H24        10.2858   -4.7259   -2.9873 H         1 <0>         0.1002
     57 H25        10.4681   -5.8438   -1.6124 H         1 <0>         0.0917
     58 H26         8.4516   -6.4116   -0.2070 H         1 <0>         0.1417
     59 H27         6.8507   -5.7858   -0.6671 H         1 <0>         0.1388
     60 H28         9.0025   -5.7083   -4.5760 H         1 <0>         0.4063
     61 H29         8.4378   -7.2807   -4.7526 H         1 <0>         0.4154
     62 H30         7.6842   -3.5800   -0.2090 H         1 <0>         0.4181
@<TRIPOS>BOND
     1    1    2 1
     2    1   34 1
     3    1   35 1
     4    1   36 1
     5    2    3 1
     6    2   37 1
     7    2   38 1
     8    3   11 1
     9    3    4 2
    10    4    5 1
    11    4   12 1
    12    5   10 ar
    13    5    6 ar
    14    6    7 ar
    15    6   39 1
    16    7    8 ar
    17    7   40 1
    18    8    9 ar
    19    8   41 1
    20    9   10 ar
    21    9   42 1
    22   10   11 1
    23   12   13 2
    24   12   43 1
    25   13   14 1
    26   13   44 1
    27   14   15 2
    28   14   16 am
    29   16   17 1
    30   16   45 1
    31   17   22 ar
    32   17   18 ar
    33   18   19 ar
    34   18   46 1
    35   19   20 ar
    36   19   47 1
    37   20   21 ar
    38   20   48 1
    39   21   22 ar
    40   21   49 1
    41   22   23 1
    42   23   24 1
    43   23   50 1
    44   23   51 1
    45   24   30 1
    46   24   25 1
    47   24   62 1
    48   25   26 1
    49   25   52 1
    50   25   53 1
    51   26   27 1
    52   26   54 1
    53   26   55 1
    54   27   28 1
    55   27   56 1
    56   27   57 1
    57   28   29 1
    58   28   30 1
    59   28   31 1
    60   30   58 1
    61   30   59 1
    62   31   32 2
    63   31   33 am
    64   33   60 1
    65   33   61 1
@<TRIPOS>MOLECULE
ZINC13142217
   45    47     0     0     0
SMALL
USER_CHARGES

@<TRIPOS>ATOM
      1 C1         -0.1574    1.4825    0.2370 C.3       1 <0>        -0.1093
      2 C2         -0.0580   -0.0156    0.1074 C.2       1 <0>         0.1651
      3 C3         -1.0929   -0.8972    0.2151 C.2       1 <0>        -0.3127
      4 C4         -0.5280   -2.2409    0.0182 C.2       1 <0>         0.1827
      5 N1          0.7559   -2.0875   -0.1865 N.2       1 <0>        -0.2520
      6 O1          1.0580   -0.7074   -0.1385 O.3       1 <0>        -0.0497
      7 C5         -1.2706   -3.5238    0.0471 C.ar      1 <0>        -0.0466
      8 C6         -2.3067   -3.7538   -0.8580 C.ar      1 <0>        -0.0076
      9 C7         -2.9944   -4.9515   -0.8263 C.ar      1 <0>        -0.1044
     10 C8         -2.6578   -5.9212    0.1006 C.ar      1 <0>        -0.0664
     11 C9         -1.6315   -5.6993    1.0008 C.ar      1 <0>        -0.1040
     12 C10        -0.9323   -4.5082    0.9756 C.ar      1 <0>        -0.0002
     13 Cl1         0.3601   -4.2342    2.1019 Cl        1 <0>        -0.0321
     14 Cl2        -2.7315   -2.5374   -2.0215 Cl        1 <0>        -0.0213
     15 C11        -2.5040   -0.5674    0.4783 C.2       1 <0>         0.6181
     16 O2         -3.2344   -0.2427   -0.4394 O.2       1 <0>        -0.4591
     17 N2         -2.9865   -0.6252    1.7354 N.am      1 <0>        -0.5413
     18 N3         -4.3287   -0.3115    1.9857 N.pl3     1 <0>        -0.3861
     19 C12        -4.7919   -0.3670    3.1928 C.cat     1 <0>         0.5257
     20 C13        -6.2358   -0.0295    3.4621 C.3       1 <0>         0.0699
     21 O3         -6.5037   -0.1638    4.8593 O.3       1 <0>        -0.3106
     22 C14        -7.7699    0.1061    5.2735 C.ar      1 <0>         0.1143
     23 C15        -8.7354    0.4866    4.3531 C.ar      1 <0>        -0.1894
     24 C16       -10.0217    0.7606    4.7760 C.ar      1 <0>        -0.0674
     25 C17       -10.3471    0.6560    6.1168 C.ar      1 <0>        -0.0556
     26 C18        -9.3852    0.2771    7.0365 C.ar      1 <0>        -0.0666
     27 C19        -8.0996   -0.0041    6.6165 C.ar      1 <0>        -0.1202
     28 Cl3       -11.9640    1.0013    6.6459 Cl        1 <0>        -0.0474
     29 N4         -3.9621   -0.7359    4.2355 N.pl3     1 <0>        -0.7703
     30 H1          0.8290    1.9254    0.0992 H         1 <0>         0.1078
     31 H2         -0.8382    1.8685   -0.5218 H         1 <0>         0.1121
     32 H3         -0.5349    1.7373    1.2272 H         1 <0>         0.1038
     33 H4         -3.7969   -5.1308   -1.5265 H         1 <0>         0.1533
     34 H5         -3.1990   -6.8556    0.1218 H         1 <0>         0.1554
     35 H6         -1.3734   -6.4605    1.7221 H         1 <0>         0.1542
     36 H7         -2.4043   -0.8840    2.4669 H         1 <0>         0.4377
     37 H8         -6.4332    0.9964    3.1512 H         1 <0>         0.1420
     38 H9         -6.8783   -0.7090    2.9020 H         1 <0>         0.1417
     39 H10        -8.4817    0.5690    3.3066 H         1 <0>         0.1389
     40 H11       -10.7737    1.0568    4.0597 H         1 <0>         0.1455
     41 H12        -9.6410    0.1964    8.0826 H         1 <0>         0.1504
     42 H13        -7.3503   -0.3045    7.3339 H         1 <0>         0.1469
     43 H14        -3.0327   -0.9532    4.0622 H         1 <0>         0.4221
     44 H15        -4.3093   -0.7776    5.1403 H         1 <0>         0.4559
     45 H16        -4.9109   -0.0527    1.2543 H         1 <0>         0.4766
@<TRIPOS>BOND
     1    1    2 1
     2    1   30 1
     3    1   31 1
     4    1   32 1
     5    2    6 1
     6    2    3 2
     7    3    4 1
     8    3   15 1
     9    4    5 2
    10    4    7 1
    11    5    6 1
    12    7   12 ar
    13    7    8 ar
    14    8    9 ar
    15    8   14 1
    16    9   10 ar
    17    9   33 1
    18   10   11 ar
    19   10   34 1
    20   11   12 ar
    21   11   35 1
    22   12   13 1
    23   15   16 2
    24   15   17 am
    25   17   18 1
    26   17   36 1
    27   18   19 2
    28   18   45 1
    29   19   20 1
    30   19   29 1
    31   20   21 1
    32   20   37 1
    33   20   38 1
    34   21   22 1
    35   22   27 ar
    36   22   23 ar
    37   23   24 ar
    38   23   39 1
    39   24   25 ar
    40   24   40 1
    41   25   26 ar
    42   25   28 1
    43   26   27 ar
    44   26   41 1
    45   27   42 1
    46   29   43 1
    47   29   44 1
@<TRIPOS>MOLECULE
ZINC13248989
   61    63     0     0     0
SMALL
USER_CHARGES
1-[2-[[4-chloro-3-[(2,4-dimethylphenyl)sulfamoyl]phenyl]amino]-2-oxo-ethyl]cycloheptane-1-carboxylic acid
@<TRIPOS>ATOM
      1 C1         10.3160    4.5258   -1.7577 C.3       1 <0>        -0.1105
      2 C2          9.0621    3.9357   -1.1656 C.ar      1 <0>        -0.1022
      3 C3          8.1437    3.3036   -1.9842 C.ar      1 <0>        -0.0798
      4 C4          6.9910    2.7669   -1.4458 C.ar      1 <0>        -0.1537
      5 C5          6.7598    2.8522   -0.0785 C.ar      1 <0>         0.1644
      6 C6          7.6868    3.4825    0.7414 C.ar      1 <0>        -0.1057
      7 C7          8.8350    4.0223    0.1955 C.ar      1 <0>        -0.0954
      8 C8          7.4399    3.5779    2.2250 C.3       1 <0>        -0.1100
      9 N1          5.5974    2.3057    0.4701 N.pl3     1 <0>        -1.0492
     10 S1          4.9617    0.9114   -0.1576 S.o2      1 <0>         2.6788
     11 O1          6.0562    0.0367   -0.3945 O.2       1 <0>        -0.9111
     12 O2          3.8668    0.5536    0.6745 O.2       1 <0>        -0.9381
     13 C9          4.2859    1.3109   -1.7350 C.ar      1 <0>        -0.6531
     14 C10         4.8423    0.7749   -2.8800 C.ar      1 <0>        -0.0123
     15 C11         4.3090    1.0898   -4.1227 C.ar      1 <0>         0.1560
     16 C12         3.2170    1.9433   -4.2109 C.ar      1 <0>        -0.0935
     17 C13         2.6644    2.4765   -3.0632 C.ar      1 <0>        -0.1060
     18 C14         3.1947    2.1568   -1.8253 C.ar      1 <0>         0.0256
     19 Cl1         2.4932    2.8231   -0.3839 Cl        1 <0>        -0.0549
     20 N2          4.8713    0.5483   -5.2845 N.am      1 <0>        -0.6853
     21 C15         5.4210   -0.6820   -5.2570 C.2       1 <0>         0.5010
     22 O3          5.3525   -1.3544   -4.2499 O.2       1 <0>        -0.4536
     23 C16         6.1207   -1.2221   -6.4775 C.3       1 <0>        -0.1271
     24 C17         6.9001   -2.4840   -6.1020 C.3       1 <0>        -0.0851
     25 C18         8.1215   -2.6018   -6.9729 C.3       1 <0>        -0.0981
     26 C19         7.9536   -1.8814   -8.3244 C.3       1 <0>        -0.1135
     27 C20         6.5622   -2.0998   -8.9490 C.3       1 <0>        -0.1386
     28 C21         6.0857   -3.5204   -8.8112 C.3       1 <0>        -0.1161
     29 C22         5.2162   -3.6246   -7.5415 C.3       1 <0>        -0.1177
     30 C23         6.0148   -3.7265   -6.3291 C.3       1 <0>        -0.1017
     31 C24         7.3110   -2.4130   -4.6538 C.2       1 <0>         0.4921
     32 O4          6.9713   -3.2821   -3.8862 O.co2     1 <0>        -0.6277
     33 H1         11.1046    3.7733   -1.7624 H         1 <0>         0.0713
     34 H2         10.1175    4.8505   -2.7791 H         1 <0>         0.0652
     35 H3         10.6328    5.3804   -1.1598 H         1 <0>         0.0629
     36 H4          8.3263    3.2337   -3.0464 H         1 <0>         0.1291
     37 H5          6.2722    2.2775   -2.0862 H         1 <0>         0.1266
     38 H6          9.5564    4.5123    0.8326 H         1 <0>         0.1255
     39 H7          7.8664    2.7060    2.7211 H         1 <0>         0.0737
     40 H8          7.9078    4.4823    2.6138 H         1 <0>         0.0685
     41 H9          6.3669    3.6143    2.4132 H         1 <0>         0.0610
     42 H10         5.1625    2.7429    1.2189 H         1 <0>         0.4224
     43 H11         5.6913    0.1111   -2.8087 H         1 <0>         0.1818
     44 H12         2.8005    2.1901   -5.1763 H         1 <0>         0.1425
     45 H13         1.8152    3.1403   -3.1313 H         1 <0>         0.1442
     46 H14         4.8653    1.0585   -6.1095 H         1 <0>         0.4079
     47 H15         5.3826   -1.4649   -7.2419 H         1 <0>         0.1131
     48 H16         6.8098   -0.4709   -6.8635 H         1 <0>         0.0927
     49 H17         8.9728   -2.1702   -6.4466 H         1 <0>         0.0696
     50 H18         8.3220   -3.6570   -7.1583 H         1 <0>         0.0526
     51 H19         8.7111   -2.2503   -9.0159 H         1 <0>         0.0523
     52 H20         8.1079   -0.8128   -8.1747 H         1 <0>         0.0571
     53 H21         6.6068   -1.8439  -10.0076 H         1 <0>         0.0497
     54 H22         5.8477   -1.4390   -8.4582 H         1 <0>         0.0775
     55 H23         6.9434   -4.1873   -8.7234 H         1 <0>         0.0645
     56 H24         5.4943   -3.7975   -9.6838 H         1 <0>         0.0539
     57 H25         4.5804   -4.5064   -7.6206 H         1 <0>         0.0526
     58 H26         4.5842   -2.7391   -7.4745 H         1 <0>         0.0556
     59 H27         6.6536   -4.6069   -6.4001 H         1 <0>         0.0538
     60 H28         5.3472   -3.8450   -5.4756 H         1 <0>         0.0717
     61 O5          8.0543   -1.3843   -4.2168 O.co2     1 <0>        -0.7772
@<TRIPOS>BOND
     1    1    2 1
     2    1   33 1
     3    1   34 1
     4    1   35 1
     5    2    7 ar
     6    2    3 ar
     7    3    4 ar
     8    3   36 1
     9    4    5 ar
    10    4   37 1
    11    5    6 ar
    12    5    9 1
    13    6    7 ar
    14    6    8 1
    15    7   38 1
    16    8   39 1
    17    8   40 1
    18    8   41 1
    19    9   10 1
    20    9   42 1
    21   10   11 2
    22   10   12 2
    23   10   13 1
    24   13   18 ar
    25   13   14 ar
    26   14   15 ar
    27   14   43 1
    28   15   16 ar
    29   15   20 1
    30   16   17 ar
    31   16   44 1
    32   17   18 ar
    33   17   45 1
    34   18   19 1
    35   20   21 am
    36   20   46 1
    37   21   22 2
    38   21   23 1
    39   23   24 1
    40   23   47 1
    41   23   48 1
    42   24   30 1
    43   24   25 1
    44   24   31 1
    45   25   26 1
    46   25   49 1
    47   25   50 1
    48   26   27 1
    49   26   51 1
    50   26   52 1
    51   27   28 1
    52   27   53 1
    53   27   54 1
    54   28   29 1
    55   28   55 1
    56   28   56 1
    57   29   30 1
    58   29   57 1
    59   29   58 1
    60   30   59 1
    61   30   60 1
    62   31   32 2
    63   31   61 1
@<TRIPOS>MOLECULE
ZINC35457059
   66    69     0     0     0
SMALL
USER_CHARGES

@<TRIPOS>ATOM
      1 C1          0.9765    2.9639    1.1014 C.3       1 <0>        -0.1018
      2 C2          0.3944    1.5819    0.9527 C.ar      1 <0>        -0.1202
      3 C3          0.0623    1.1134   -0.2904 C.ar      1 <0>        -0.0626
      4 C4         -0.4796   -0.1698   -0.4393 C.ar      1 <0>        -0.2604
      5 C5         -0.6794   -0.9671    0.6956 C.ar      1 <0>         0.2150
      6 C6         -0.3408   -0.4830    1.9516 C.ar      1 <0>        -0.1702
      7 C7          0.2019    0.7837    2.0836 C.ar      1 <0>         0.2227
      8 O1          0.5597    1.2845    3.2919 O.3       1 <0>        -0.2908
      9 C8          0.0301    0.6605    4.4643 C.3       1 <0>         0.1221
     10 C9          0.8060    1.1657    5.6862 C.3       1 <0>        -0.1337
     11 C10         2.2970    0.8866    5.4852 C.3       1 <0>         0.1033
     12 H1          2.6446    1.4009    4.5892 H         1 <0>         0.0775
     13 C11         2.5234   -0.6179    5.3285 C.3       1 <0>        -0.0544
     14 H2          2.1886   -1.1311    6.2299 H         1 <0>         0.0859
     15 C12         1.7318   -1.1342    4.1244 C.3       1 <0>        -0.0310
     16 C13         0.2444   -0.8543    4.3406 C.3       1 <0>        -0.1099
     17 H3         -0.0902   -1.3457    5.2542 H         1 <0>         0.0977
     18 C14        -0.5754   -1.3645    3.1519 C.3       1 <0>        -0.0765
     19 C15         2.2069   -0.4211    2.8569 C.3       1 <0>        -0.1906
     20 C16         1.9518   -2.6411    3.9767 C.3       1 <0>        -0.0907
     21 C17         1.6615   -3.3321    5.3106 C.3       1 <0>        -0.1696
     22 C18         1.7451   -4.8260    5.1311 C.2       1 <0>         0.4910
     23 O2          2.0121   -5.2946    4.0376 O.co2     1 <0>        -0.7011
     24 O3          1.5458   -5.5661    6.0793 O.co2     1 <0>        -0.7165
     25 C19         4.0135   -0.8888    5.1117 C.3       1 <0>         0.1334
     26 C20         4.5778    0.1290    4.1184 C.3       1 <0>        -0.1951
     27 C21         4.7537   -0.7647    6.4450 C.3       1 <0>        -0.1731
     28 O4          4.1870   -2.2085    4.5917 O.3       1 <0>        -0.5189
     29 O5          3.0265    1.3607    6.6188 O.3       1 <0>        -0.5563
     30 C22        -1.4616    0.9727    4.5995 C.3       1 <0>        -0.1730
     31 O6         -1.2039   -2.2114    0.5668 O.3       1 <0>        -0.3291
     32 C23        -0.2829   -3.2869    0.3740 C.3       1 <0>         0.0382
     33 C24        -0.7293   -0.3850   -1.8703 C.2       1 <0>         0.5279
     34 O7         -1.1982   -1.3984   -2.3505 O.2       1 <0>        -0.4463
     35 O8         -0.3648    0.7019   -2.5717 O.3       1 <0>        -0.3201
     36 C25         0.1434    1.6967   -1.6785 C.3       1 <0>         0.0979
     37 H4          2.0626    2.9108    1.0255 H         1 <0>         0.0712
     38 H5          0.5883    3.6085    0.3128 H         1 <0>         0.0650
     39 H6          0.6997    3.3721    2.0735 H         1 <0>         0.0743
     40 H7          0.6483    2.2382    5.8000 H         1 <0>         0.0753
     41 H8          0.4558    0.6484    6.5794 H         1 <0>         0.0927
     42 H9         -1.6363   -1.3604    3.4019 H         1 <0>         0.0843
     43 H10        -0.2640   -2.3828    2.9193 H         1 <0>         0.1024
     44 H11         3.1440   -0.8645    2.5201 H         1 <0>         0.0611
     45 H12         1.4536   -0.5272    2.0763 H         1 <0>         0.0706
     46 H13         2.3616    0.6363    3.0712 H         1 <0>         0.0725
     47 H14         1.2818   -3.0328    3.2113 H         1 <0>         0.0470
     48 H15         2.9852   -2.8307    3.6866 H         1 <0>         0.1186
     49 H16         2.3945   -3.0136    6.0518 H         1 <0>         0.0585
     50 H17         0.6613   -3.0623    5.6495 H         1 <0>         0.0377
     51 H18         4.1004    1.0958    4.2783 H         1 <0>         0.0683
     52 H19         5.6531    0.2255    4.2685 H         1 <0>         0.0467
     53 H20         4.3818   -0.2092    3.1009 H         1 <0>         0.0760
     54 H21         4.2633   -1.3886    7.1922 H         1 <0>         0.0560
     55 H22         5.7859   -1.0916    6.3194 H         1 <0>         0.0448
     56 H23         4.7391    0.2746    6.7732 H         1 <0>         0.0820
     57 H24         5.1094   -2.4492    4.4295 H         1 <0>         0.3513
     58 H25         2.9324    2.3099    6.7781 H         1 <0>         0.3687
     59 H26        -1.9921    0.5973    3.7244 H         1 <0>         0.0680
     60 H27        -1.8536    0.4922    5.4959 H         1 <0>         0.0776
     61 H28        -1.6018    2.0510    4.6744 H         1 <0>         0.0661
     62 H29         0.3953   -3.3416    1.2257 H         1 <0>         0.0621
     63 H30        -0.8322   -4.2243    0.2862 H         1 <0>         0.1020
     64 H31         0.2908   -3.1152   -0.5368 H         1 <0>         0.0481
     65 H32        -0.4646    2.5992   -1.7402 H         1 <0>         0.1147
     66 H33         1.1796    1.9267   -1.9267 H         1 <0>         0.1158
@<TRIPOS>BOND
     1    1    2 1
     2    1   37 1
     3    1   38 1
     4    1   39 1
     5    2    7 ar
     6    2    3 ar
     7    3   36 1
     8    3    4 ar
     9    4    5 ar
    10    4   33 1
    11    5    6 ar
    12    5   31 1
    13    6   18 1
    14    6    7 ar
    15    7    8 1
    16    8    9 1
    17    9   16 1
    18    9   10 1
    19    9   30 1
    20   10   11 1
    21   10   40 1
    22   10   41 1
    23   11   12 1
    24   11   13 1
    25   11   29 1
    26   13   14 1
    27   13   15 1
    28   13   25 1
    29   15   16 1
    30   15   19 1
    31   15   20 1
    32   16   17 1
    33   16   18 1
    34   18   42 1
    35   18   43 1
    36   19   44 1
    37   19   45 1
    38   19   46 1
    39   20   21 1
    40   20   47 1
    41   20   48 1
    42   21   22 1
    43   21   49 1
    44   21   50 1
    45   22   23 2
    46   22   24 1
    47   25   26 1
    48   25   27 1
    49   25   28 1
    50   26   51 1
    51   26   52 1
    52   26   53 1
    53   27   54 1
    54   27   55 1
    55   27   56 1
    56   28   57 1
    57   29   58 1
    58   30   59 1
    59   30   60 1
    60   30   61 1
    61   31   32 1
    62   32   62 1
    63   32   63 1
    64   32   64 1
    65   33   34 2
    66   33   35 1
    67   35   36 1
    68   36   65 1
    69   36   66 1
@<TRIPOS>MOLECULE
ZINC39556464
   55    58     0     0     0
SMALL
USER_CHARGES

@<TRIPOS>ATOM
      1 C1         -0.0872    1.5925   -0.3467 C.3       1 <0>        -0.1522
      2 C2          0.0065    0.0948   -0.0481 C.3       1 <0>        -0.0879
      3 C3          0.7004   -0.6025   -1.1897 C.ar      1 <0>        -0.0884
      4 C4         -0.0408   -1.1795   -2.1980 C.ar      1 <0>        -0.1101
      5 C5          0.5847   -1.8245   -3.2546 C.ar      1 <0>        -0.1436
      6 C6          1.9600   -1.8967   -3.3084 C.ar      1 <0>        -0.0783
      7 C7          2.7208   -1.3182   -2.2965 C.ar      1 <0>        -0.0762
      8 C8          2.0899   -0.6594   -1.2293 C.ar      1 <0>         0.1021
      9 N1          3.0750   -0.1818   -0.3889 N.pl3     1 <0>        -0.4596
     10 C9          4.3041   -0.4973   -0.8685 C.2       1 <0>         0.1242
     11 C10         4.1707   -1.2090   -2.0420 C.2       1 <0>        -0.1545
     12 C11         5.2166   -1.7193   -2.8505 C.2       1 <0>         0.0151
     13 C12         6.5321   -1.5344   -2.4751 C.2       1 <0>        -0.0356
     14 C13         7.7295   -1.9894   -3.1947 C.2       1 <0>         0.5156
     15 O1          7.7685   -2.6068   -4.2445 O.2       1 <0>        -0.5126
     16 N2          8.7782   -1.5789   -2.4485 N.am      1 <0>        -0.5321
     17 C14         8.2930   -0.9181   -1.3465 C.2       1 <0>         0.4959
     18 S1          9.2978   -0.2043   -0.0873 S.3       1 <0>        -0.7677
     19 N3          6.9871   -0.8845   -1.3597 N.2       1 <0>        -0.5490
     20 C15        10.1328   -1.7917   -2.7481 C.ar      1 <0>         0.1321
     21 C16        10.8977   -2.6287   -1.9474 C.ar      1 <0>        -0.0475
     22 C17        12.2303   -2.8382   -2.2429 C.ar      1 <0>        -0.1411
     23 C18        12.8046   -2.2120   -3.3394 C.ar      1 <0>         0.1244
     24 C19        12.0406   -1.3750   -4.1396 C.ar      1 <0>        -0.1999
     25 C20        10.7064   -1.1698   -3.8485 C.ar      1 <0>        -0.0677
     26 O2         14.1168   -2.4182   -3.6296 O.3       1 <0>        -0.3172
     27 C21        14.6423   -1.7415   -4.7733 C.3       1 <0>         0.0531
     28 C22        16.1221   -2.0936   -4.9388 C.3       1 <0>        -0.1507
     29 C23         2.8278    0.5625    0.8484 C.3       1 <0>         0.0748
     30 C24         2.5916   -0.4059    1.9786 C.2       1 <0>         0.4962
     31 O3          2.6263   -1.6003    1.7709 O.2       1 <0>        -0.5135
     32 N4          2.3417    0.0552    3.2201 N.am      1 <0>        -0.8543
     33 H1          0.9156    2.0024   -0.4672 H         1 <0>         0.0551
     34 H2         -0.6548    1.7451   -1.2646 H         1 <0>         0.0626
     35 H3         -0.5891    2.0969    0.4790 H         1 <0>         0.0577
     36 H4          0.5742   -0.0578    0.8698 H         1 <0>         0.0620
     37 H5         -0.9962   -0.3151    0.0724 H         1 <0>         0.0735
     38 H6         -1.1192   -1.1292   -2.1651 H         1 <0>         0.1189
     39 H7         -0.0084   -2.2724   -4.0382 H         1 <0>         0.1194
     40 H8          2.4451   -2.4000   -4.1316 H         1 <0>         0.1219
     41 H9          5.2418   -0.2396   -0.3987 H         1 <0>         0.2073
     42 H10         4.9846   -2.2529   -3.7603 H         1 <0>         0.1305
     43 H11        10.4508   -3.1157   -1.0933 H         1 <0>         0.1321
     44 H12        12.8255   -3.4894   -1.6199 H         1 <0>         0.1331
     45 H13        12.4883   -0.8874   -4.9930 H         1 <0>         0.1282
     46 H14        10.1106   -0.5220   -4.4744 H         1 <0>         0.1221
     47 H15        14.0935   -2.0511   -5.6627 H         1 <0>         0.0603
     48 H16        14.5379   -0.6650   -4.6383 H         1 <0>         0.0613
     49 H17        16.6709   -1.7840   -4.0494 H         1 <0>         0.0654
     50 H18        16.2265   -3.1702   -5.0738 H         1 <0>         0.0646
     51 H19        16.5230   -1.5775   -5.8112 H         1 <0>         0.0753
     52 H20         3.6934    1.1842    1.0776 H         1 <0>         0.1251
     53 H21         1.9492    1.1952    0.7224 H         1 <0>         0.1236
     54 H22         2.3139    1.0105    3.3862 H         1 <0>         0.4017
     55 H23         2.1896   -0.5681    3.9476 H         1 <0>         0.4045
@<TRIPOS>BOND
     1    1    2 1
     2    1   33 1
     3    1   34 1
     4    1   35 1
     5    2    3 1
     6    2   36 1
     7    2   37 1
     8    3    8 ar
     9    3    4 ar
    10    4    5 ar
    11    4   38 1
    12    5    6 ar
    13    5   39 1
    14    6    7 ar
    15    6   40 1
    16    7   11 1
    17    7    8 ar
    18    8    9 1
    19    9   10 1
    20    9   29 1
    21   10   11 2
    22   10   41 1
    23   11   12 1
    24   12   13 2
    25   12   42 1
    26   13   19 1
    27   13   14 1
    28   14   15 2
    29   14   16 am
    30   16   17 1
    31   16   20 1
    32   17   18 1
    33   17   19 2
    34   20   25 ar
    35   20   21 ar
    36   21   22 ar
    37   21   43 1
    38   22   23 ar
    39   22   44 1
    40   23   24 ar
    41   23   26 1
    42   24   25 ar
    43   24   45 1
    44   25   46 1
    45   26   27 1
    46   27   28 1
    47   27   47 1
    48   27   48 1
    49   28   49 1
    50   28   50 1
    51   28   51 1
    52   29   30 1
    53   29   52 1
    54   29   53 1
    55   30   31 2
    56   30   32 am
    57   32   54 1
    58   32   55 1
@<TRIPOS>MOLECULE
ZINC13068511
   49    52     0     0     0
SMALL
USER_CHARGES

@<TRIPOS>ATOM
      1 C1         -0.0167    1.3781    0.0096 C.ar      1 <0>        -0.1229
      2 C2          1.1709    2.0855    0.0021 C.ar      1 <0>        -0.1159
      3 C3          2.3773    1.4107   -0.0130 C.ar      1 <0>        -0.1167
      4 C4          2.3960    0.0285   -0.0201 C.ar      1 <0>        -0.0696
      5 C5          1.2084   -0.6789   -0.0117 C.ar      1 <0>        -0.1129
      6 C6          0.0021   -0.0041    0.0020 C.ar      1 <0>        -0.1148
      7 C7          3.7112   -0.7071   -0.0376 C.3       1 <0>         0.0193
      8 H1          4.5299    0.0124   -0.0426 H         1 <0>         0.0953
      9 C8          3.7911   -1.5793   -1.2921 C.3       1 <0>         0.1197
     10 N1          3.8097   -0.7238   -2.4812 N.pl3     1 <0>        -1.1106
     11 S1          4.2614   -1.3513   -3.9457 S.o2      1 <0>         2.6964
     12 O1          4.1520   -0.2960   -4.8909 O.2       1 <0>        -0.9511
     13 O2          5.4758   -2.0564   -3.7282 O.2       1 <0>        -0.9451
     14 C9          3.0536   -2.5542   -4.3919 C.ar      1 <0>        -0.6847
     15 C10         2.2622   -2.3542   -5.5024 C.ar      1 <0>         0.0365
     16 C11         1.3044   -3.3091   -5.8555 C.ar      1 <0>        -0.1389
     17 C12         1.1561   -4.4626   -5.0775 C.ar      1 <0>         0.0516
     18 C13         1.9556   -4.6495   -3.9682 C.ar      1 <0>        -0.1389
     19 C14         2.9060   -3.7013   -3.6285 C.ar      1 <0>         0.0464
     20 Cl1         3.9125   -3.9473   -2.2356 Cl        1 <0>        -0.0474
     21 Cl2        -0.0305   -5.6551   -5.5061 Cl        1 <0>        -0.0166
     22 C15         0.4544   -3.1016   -7.0414 C.2       1 <0>         0.5179
     23 O3          0.5861   -2.0920   -7.7192 O.co2     1 <0>        -0.6748
     24 O4         -0.3829   -3.9390   -7.3478 O.co2     1 <0>        -0.6541
     25 C16         3.8156   -1.5785    1.1875 C.2       1 <0>        -0.1570
     26 C17         2.9882   -2.5789    1.5288 C.2       1 <0>         0.0609
     27 N2          3.3982   -3.1425    2.7063 N.pl3     1 <0>        -0.5928
     28 H2          2.9582   -3.8828    3.1526 H         1 <0>         0.4164
     29 C18         4.5283   -2.5022    3.1632 C.ar      1 <0>         0.0967
     30 C19         4.8431   -1.4986    2.2286 C.ar      1 <0>        -0.0951
     31 C20         5.9577   -0.6830    2.4312 C.ar      1 <0>        -0.0692
     32 C21         6.7407   -0.8664    3.5362 C.ar      1 <0>        -0.1469
     33 C22         6.4368   -1.8577    4.4589 C.ar      1 <0>        -0.1002
     34 C23         5.3361   -2.6678    4.2832 C.ar      1 <0>        -0.1310
     35 H3         -0.9591    1.9053    0.0259 H         1 <0>         0.1194
     36 H4          1.1563    3.1654    0.0076 H         1 <0>         0.1208
     37 H5          3.3051    1.9634   -0.0196 H         1 <0>         0.1223
     38 H6          1.2231   -1.7588   -0.0176 H         1 <0>         0.1182
     39 H7         -0.9258   -0.5567    0.0082 H         1 <0>         0.1206
     40 H8          4.7013   -2.1781   -1.2610 H         1 <0>         0.0913
     41 H9          2.9238   -2.2384   -1.3322 H         1 <0>         0.0743
     42 H10         3.5575    0.2101   -2.4108 H         1 <0>         0.4195
     43 H11         2.3817   -1.4615   -6.0983 H         1 <0>         0.1652
     44 H12         1.8428   -5.5391   -3.3663 H         1 <0>         0.1452
     45 H13         2.1262   -2.8922    0.9585 H         1 <0>         0.1696
     46 H14         6.2007    0.0899    1.7171 H         1 <0>         0.1216
     47 H15         7.6030   -0.2352    3.6925 H         1 <0>         0.1212
     48 H16         7.0656   -1.9909    5.3268 H         1 <0>         0.1230
     49 H17         5.1087   -3.4372    5.0063 H         1 <0>         0.1180
@<TRIPOS>BOND
     1    1    6 ar
     2    1    2 ar
     3    1   35 1
     4    2    3 ar
     5    2   36 1
     6    3    4 ar
     7    3   37 1
     8    4    5 ar
     9    4    7 1
    10    5    6 ar
    11    5   38 1
    12    6   39 1
    13    7    8 1
    14    7    9 1
    15    7   25 1
    16    9   10 1
    17    9   40 1
    18    9   41 1
    19   10   11 1
    20   10   42 1
    21   11   12 2
    22   11   13 2
    23   11   14 1
    24   14   19 ar
    25   14   15 ar
    26   15   16 ar
    27   15   43 1
    28   16   17 ar
    29   16   22 1
    30   17   18 ar
    31   17   21 1
    32   18   19 ar
    33   18   44 1
    34   19   20 1
    35   22   23 2
    36   22   24 1
    37   25   30 1
    38   25   26 2
    39   26   27 1
    40   26   45 1
    41   27   28 1
    42   27   29 1
    43   29   34 ar
    44   29   30 ar
    45   30   31 ar
    46   31   32 ar
    47   31   46 1
    48   32   33 ar
    49   32   47 1
    50   33   34 ar
    51   33   48 1
    52   34   49 1
@<TRIPOS>MOLECULE
ZINC09348139
   54    57     0     0     0
SMALL
USER_CHARGES

@<TRIPOS>ATOM
      1 C1          4.2629   -1.1003    1.7904 C.3       1 <0>        -0.0991
      2 C2          3.0741   -1.9719    1.4771 C.ar      1 <0>         0.2078
      3 C3          3.0753   -2.7823    0.3526 C.ar      1 <0>        -0.3098
      4 C4          1.9614   -3.5683    0.1016 C.ar      1 <0>         0.2058
      5 N1          0.9374   -3.5216    0.9374 N.ar      1 <0>        -0.5776
      6 C5          0.9685   -2.7361    2.0031 C.ar      1 <0>         0.5840
      7 N2          2.0190   -1.9771    2.2748 N.ar      1 <0>        -0.5295
      8 N3         -0.1246   -2.7118    2.8591 N.pl3     1 <0>        -0.6543
      9 C6         -0.1561   -1.8290    3.9029 C.2       1 <0>         0.6218
     10 N4         -0.5771   -2.2263    5.0932 N.2       1 <0>        -0.6788
     11 C7         -0.8781   -3.5155    5.3016 C.2       1 <0>         0.4999
     12 O1         -0.7502   -4.3243    4.3997 O.2       1 <0>        -0.5979
     13 C8         -1.3662   -3.9566    6.6277 C.ar      1 <0>        -0.0813
     14 C9         -1.5194   -3.0318    7.6613 C.ar      1 <0>        -0.0532
     15 C10        -1.9749   -3.4488    8.8945 C.ar      1 <0>        -0.1392
     16 C11        -2.2802   -4.7817    9.1089 C.ar      1 <0>        -0.1060
     17 C12        -2.1306   -5.7043    8.0900 C.ar      1 <0>        -0.1353
     18 C13        -1.6807   -5.2989    6.8481 C.ar      1 <0>        -0.0033
     19 Cl1        -1.4999   -6.4567    5.5674 Cl        1 <0>        -0.0474
     20 N5          0.2461   -0.5394    3.7174 N.2       1 <0>        -0.6507
     21 C14        -0.0181    0.1343    2.4436 C.3       1 <0>         0.1107
     22 C15         0.3849    1.6063    2.5521 C.3       1 <0>        -0.0230
     23 C16         0.0095    2.3248    1.2817 C.2       1 <0>        -0.1446
     24 C17         0.8135    2.5685    0.2347 C.2       1 <0>         0.0362
     25 N6          0.1242    3.2433   -0.7358 N.pl3     1 <0>        -0.5998
     26 H1          0.4944    3.5295   -1.5854 H         1 <0>         0.4109
     27 C18        -1.1733    3.4557   -0.3266 C.ar      1 <0>         0.0942
     28 C19        -1.3038    2.8841    0.9525 C.ar      1 <0>        -0.1010
     29 C20        -2.5283    2.9432    1.6201 C.ar      1 <0>        -0.0600
     30 C21        -3.5965    3.5538    1.0254 C.ar      1 <0>        -0.1552
     31 C22        -3.4740    4.1155   -0.2378 C.ar      1 <0>        -0.1018
     32 C23        -2.2722    4.0767   -0.9107 C.ar      1 <0>        -0.1385
     33 C24         1.9176   -4.4646   -1.1091 C.3       1 <0>        -0.0996
     34 H2          4.9571   -1.6479    2.4278 H         1 <0>         0.0772
     35 H3          4.7636   -0.8218    0.8631 H         1 <0>         0.0710
     36 H4          3.9279   -0.2007    2.3067 H         1 <0>         0.0810
     37 H5          3.9252   -2.8007   -0.3136 H         1 <0>         0.1303
     38 H6         -0.8658   -3.3211    2.7166 H         1 <0>         0.4100
     39 H7         -1.2813   -1.9914    7.4960 H         1 <0>         0.1493
     40 H8         -2.0934   -2.7336    9.6949 H         1 <0>         0.1249
     41 H9         -2.6366   -5.1026   10.0766 H         1 <0>         0.1240
     42 H10        -2.3699   -6.7430    8.2639 H         1 <0>         0.1265
     43 H11         0.5605   -0.3435    1.6531 H         1 <0>         0.0073
     44 H12        -1.0803    0.0647    2.2092 H         1 <0>         0.0121
     45 H13        -0.1332    2.0637    3.3949 H         1 <0>         0.0685
     46 H14         1.4617    1.6779    2.7053 H         1 <0>         0.0630
     47 H15         1.8509    2.2757    0.1684 H         1 <0>         0.1654
     48 H16        -2.6312    2.5076    2.6030 H         1 <0>         0.1238
     49 H17        -4.5437    3.5992    1.5423 H         1 <0>         0.1192
     50 H18        -4.3274    4.5941   -0.6951 H         1 <0>         0.1201
     51 H19        -2.1872    4.5157   -1.8939 H         1 <0>         0.1142
     52 H20         2.3214   -5.4436   -0.8512 H         1 <0>         0.0782
     53 H21         0.8858   -4.5737   -1.4432 H         1 <0>         0.0756
     54 H22         2.5137   -4.0248   -1.9086 H         1 <0>         0.0736
@<TRIPOS>BOND
     1    1    2 1
     2    1   34 1
     3    1   35 1
     4    1   36 1
     5    2    7 ar
     6    2    3 ar
     7    3    4 ar
     8    3   37 1
     9    4    5 ar
    10    4   33 1
    11    5    6 ar
    12    6    7 ar
    13    6    8 1
    14    8    9 1
    15    8   38 1
    16    9   10 2
    17    9   20 1
    18   10   11 1
    19   11   12 2
    20   11   13 1
    21   13   18 ar
    22   13   14 ar
    23   14   15 ar
    24   14   39 1
    25   15   16 ar
    26   15   40 1
    27   16   17 ar
    28   16   41 1
    29   17   18 ar
    30   17   42 1
    31   18   19 1
    32   20   21 1
    33   21   22 1
    34   21   43 1
    35   21   44 1
    36   22   23 1
    37   22   45 1
    38   22   46 1
    39   23   28 1
    40   23   24 2
    41   24   25 1
    42   24   47 1
    43   25   26 1
    44   25   27 1
    45   27   32 ar
    46   27   28 ar
    47   28   29 ar
    48   29   30 ar
    49   29   48 1
    50   30   31 ar
    51   30   49 1
    52   31   32 ar
    53   31   50 1
    54   32   51 1
    55   33   52 1
    56   33   53 1
    57   33   54 1
@<TRIPOS>MOLECULE
ZINC22055021
   61    62     0     0     0
SMALL
USER_CHARGES
(2R,4R)-N-[(1R,2R)-2-chloro-1-[(2S,3R,4R,5S,6R)-3,4,5-trihydroxy-6-methylsulfanyl-tetrahydropyran-2-yl]propyl]-1-methyl-4-propyl-pyrrolidine-2-carboxamide
@<TRIPOS>ATOM
      1 C1         -5.4798    3.3620    1.7421 C.3       1 <0>        -0.1610
      2 C2         -4.5890    2.3587    1.0068 C.3       1 <0>        -0.1287
      3 C3         -3.1476    2.4988    1.5005 C.3       1 <0>        -0.1230
      4 C4         -2.2568    1.4955    0.7652 C.3       1 <0>        -0.1088
      5 H1         -2.7113    0.5120    0.9550 H         1 <0>         0.1149
      6 C5         -0.7832    1.6079    1.2463 C.3       1 <0>        -0.1267
      7 C6         -0.0127    1.0858    0.0080 C.3       1 <0>         0.0174
      8 H2          0.0724   -0.0100   -0.0376 H         1 <0>         0.1630
      9 N1         -0.7704    1.5967   -1.1542 N.4       1 <0>        -0.3930
     10 C7         -2.1615    1.8471   -0.7344 C.3       1 <0>        -0.0069
     11 C8         -0.7212    0.6467   -2.2736 C.3       1 <0>        -0.0468
     12 C9          1.3931    1.6286   -0.0025 C.2       1 <0>         0.5106
     13 O1          1.6655    2.5936   -0.6849 O.2       1 <0>        -0.5344
     14 N2          2.3477    1.0418    0.7464 N.am      1 <0>        -0.6851
     15 C10         3.7143    1.5695    0.7362 C.3       1 <0>         0.1634
     16 H3          3.9135    1.9339   -0.2824 H         1 <0>         0.1190
     17 C11         4.6939    0.4557    1.1113 C.3       1 <0>         0.0863
     18 H4          4.5171    0.0989    2.1367 H         1 <0>         0.0905
     19 C12         4.5815   -0.6859    0.0974 C.3       1 <0>         0.1128
     20 H5          4.7119   -0.3232   -0.9329 H         1 <0>         0.0728
     21 C13         5.6068   -1.7696    0.4447 C.3       1 <0>         0.1003
     22 H6          5.3690   -2.2595    1.4005 H         1 <0>         0.0722
     23 C14         7.0056   -1.1459    0.4650 C.3       1 <0>         0.0758
     24 H7          7.3143   -0.8174   -0.5384 H         1 <0>         0.0779
     25 C15         7.0244    0.0135    1.4647 C.3       1 <0>         0.0810
     26 H8          6.6071   -0.3843    2.4015 H         1 <0>         0.0866
     27 O2          6.0271    0.9702    1.1014 O.3       1 <0>        -0.3622
     28 S1          8.6570    0.8039    1.4438 S.3       1 <0>        -0.1655
     29 C16         8.6172    1.9310    2.8645 C.3       1 <0>        -0.1316
     30 O3          7.9634   -2.1309    0.8581 O.3       1 <0>        -0.5884
     31 O4          5.5594   -2.8053   -0.5388 O.3       1 <0>        -0.5953
     32 O5          3.2653   -1.2403    0.1466 O.3       1 <0>        -0.5956
     33 C17         3.8279    2.7109    1.7488 C.3       1 <0>        -0.0220
     34 H9          4.7845    3.2006    1.5139 H         1 <0>         0.1234
     35 C18         2.7635    3.7679    1.4473 C.3       1 <0>        -0.1549
     36 Cl1         3.5785    2.0646    3.4134 Cl        1 <0>        -0.1554
     37 H10        -6.5161    3.2612    1.3871 H         1 <0>         0.0617
     38 H11        -5.1222    4.3833    1.5446 H         1 <0>         0.0572
     39 H12        -5.4415    3.1627    2.8232 H         1 <0>         0.0594
     40 H13        -4.9466    1.3374    1.2043 H         1 <0>         0.0685
     41 H14        -4.6273    2.5579   -0.0743 H         1 <0>         0.0613
     42 H15        -2.7900    3.5201    1.3030 H         1 <0>         0.0725
     43 H16        -3.1093    2.2996    2.5816 H         1 <0>         0.0852
     44 H17        -0.5559    2.6563    1.4897 H         1 <0>         0.1080
     45 H18        -0.6412    0.9846    2.1415 H         1 <0>         0.1255
     46 H19        -2.8573    1.2139   -1.3044 H         1 <0>         0.1357
     47 H20        -2.4250    2.9050   -0.8804 H         1 <0>         0.1359
     48 H21        -1.2916    1.0509   -3.1229 H         1 <0>         0.1283
     49 H22        -1.1600   -0.3121   -1.9603 H         1 <0>         0.1203
     50 H23         0.3248    0.4900   -2.5758 H         1 <0>         0.1213
     51 H24         2.1007    0.1666    1.3653 H         1 <0>         0.4433
     52 H25         9.5768    2.4638    2.9368 H         1 <0>         0.1127
     53 H26         8.4479    1.3540    3.7856 H         1 <0>         0.0840
     54 H27         7.8028    2.6586    2.7326 H         1 <0>         0.0884
     55 H28         9.0283   -1.8648    0.9296 H         1 <0>         0.4262
     56 H29         6.2290   -3.6740   -0.4554 H         1 <0>         0.4300
     57 H30         2.9955   -2.0763   -0.5154 H         1 <0>         0.4252
     58 H31         2.8451    4.5885    2.1753 H         1 <0>         0.0706
     59 H32         1.7645    3.3129    1.5182 H         1 <0>         0.0549
     60 H33         2.9156    4.1622    0.4317 H         1 <0>         0.0862
     61 H34        -0.3183    2.5334   -1.5122 H         1 <0>         0.4552
@<TRIPOS>BOND
     1    1    2 1
     2    1   37 1
     3    1   38 1
     4    1   39 1
     5    2    3 1
     6    2   40 1
     7    2   41 1
     8    3    4 1
     9    3   42 1
    10    3   43 1
    11    4    5 1
    12    4   10 1
    13    4    6 1
    14    6    7 1
    15    6   44 1
    16    6   45 1
    17    7    8 1
    18    7    9 1
    19    7   12 1
    20    9   10 1
    21    9   11 1
    22    9   61 1
    23   10   46 1
    24   10   47 1
    25   11   48 1
    26   11   49 1
    27   11   50 1
    28   12   13 2
    29   12   14 am
    30   14   15 1
    31   14   51 1
    32   15   16 1
    33   15   17 1
    34   15   33 1
    35   17   18 1
    36   17   27 1
    37   17   19 1
    38   19   20 1
    39   19   21 1
    40   19   32 1
    41   21   22 1
    42   21   23 1
    43   21   31 1
    44   23   24 1
    45   23   25 1
    46   23   30 1
    47   25   26 1
    48   25   27 1
    49   25   28 1
    50   28   29 1
    51   29   52 1
    52   29   53 1
    53   29   54 1
    54   30   55 1
    55   31   56 1
    56   32   57 1
    57   33   34 1
    58   33   35 1
    59   33   36 1
    60   35   58 1
    61   35   59 1
    62   35   60 1
@<TRIPOS>MOLECULE
ZINC34785595
   59    62     0     0     0
SMALL
USER_CHARGES

@<TRIPOS>ATOM
      1 C1          0.5284    0.1838    1.5180 C.ar      1 <0>        -0.0721
      2 C2          1.7909    0.3351    2.0540 C.ar      1 <0>        -0.1074
      3 C3          2.6702   -0.7340    2.0726 C.ar      1 <0>        -0.0282
      4 C4          2.2881   -1.9597    1.5546 C.ar      1 <0>        -0.1170
      5 C5          1.0279   -2.1213    1.0164 C.ar      1 <0>        -0.0726
      6 C6          0.1389   -1.0481    0.9953 C.ar      1 <0>         0.0230
      7 C7         -1.2172   -1.2163    0.4184 C.2       1 <0>         0.1639
      8 C8         -1.5593   -2.0619   -0.6573 C.2       1 <0>        -0.0509
      9 C9         -2.8972   -1.9289   -0.8801 C.2       1 <0>         0.3663
     10 N1         -3.3792   -1.0303    0.0250 N.pl3     1 <0>        -0.3362
     11 N2         -2.3117   -0.6059    0.8261 N.2       1 <0>        -0.2696
     12 C10        -4.7111   -0.6091    0.1376 C.ar      1 <0>         0.1449
     13 C11        -5.4977   -0.4795   -0.9992 C.ar      1 <0>        -0.1149
     14 C12        -6.8100   -0.0643   -0.8861 C.ar      1 <0>        -0.1267
     15 C13        -7.3414    0.2227    0.3600 C.ar      1 <0>         0.1042
     16 C14        -6.5585    0.0941    1.4951 C.ar      1 <0>        -0.1274
     17 C15        -5.2475   -0.3263    1.3868 C.ar      1 <0>        -0.0775
     18 F1         -8.6253    0.6292    0.4686 F         1 <0>        -0.1292
     19 N3         -3.6396   -2.5922   -1.8581 N.pl3     1 <0>        -0.8498
     20 N4         -0.6753   -2.8957   -1.3741 N.am      1 <0>        -0.6490
     21 C16         0.5618   -2.4589   -1.6830 C.2       1 <0>         0.7027
     22 O1          0.8950   -1.3246   -1.3976 O.2       1 <0>        -0.5455
     23 N5          1.4295   -3.2790   -2.3082 N.am      1 <0>        -0.7469
     24 C17         2.7741   -2.8042   -2.6439 C.3       1 <0>         0.1177
     25 C18         3.5502   -3.9224   -3.3426 C.3       1 <0>        -0.0225
     26 N6          4.8985   -3.4463   -3.6793 N.4       1 <0>        -0.3785
     27 C19         4.8009   -2.3585   -4.6600 C.3       1 <0>        -0.0149
     28 C20         6.1968   -1.8044   -4.9533 C.3       1 <0>        -0.1461
     29 C21         7.0765   -2.9243   -5.5166 C.3       1 <0>        -0.1398
     30 C22         7.1108   -4.0845   -4.5176 C.3       1 <0>        -0.1467
     31 C23         5.6810   -4.5541   -4.2404 C.3       1 <0>        -0.0054
     32 Cl1         4.2576   -0.5369    2.7472 Cl        1 <0>        -0.0703
     33 H1         -0.1583    1.0174    1.5077 H         1 <0>         0.1359
     34 H2          2.0937    1.2893    2.4593 H         1 <0>         0.1370
     35 H3          2.9777   -2.7907    1.5715 H         1 <0>         0.1284
     36 H4          0.7310   -3.0777    0.6119 H         1 <0>         0.1217
     37 H5         -5.0835   -0.7029   -1.9713 H         1 <0>         0.1396
     38 H6         -7.4220    0.0370   -1.7702 H         1 <0>         0.1498
     39 H7         -6.9748    0.3184    2.4661 H         1 <0>         0.1506
     40 H8         -4.6387   -0.4312    2.2726 H         1 <0>         0.1479
     41 H9         -3.1944   -3.1755   -2.4925 H         1 <0>         0.4147
     42 H10        -4.6008   -2.4700   -1.9034 H         1 <0>         0.4079
     43 H11        -0.9577   -3.7834   -1.6445 H         1 <0>         0.4017
     44 H12         1.1637   -4.1837   -2.5358 H         1 <0>         0.4018
     45 H13         2.7000   -1.9433   -3.3084 H         1 <0>         0.0886
     46 H14         3.2957   -2.5151   -1.7315 H         1 <0>         0.0902
     47 H15         3.6243   -4.7833   -2.6781 H         1 <0>         0.1385
     48 H16         3.0286   -4.2115   -4.2550 H         1 <0>         0.1362
     49 H17         4.3605   -2.7391   -5.5815 H         1 <0>         0.1302
     50 H18         4.1719   -1.5637   -4.2590 H         1 <0>         0.1335
     51 H19         6.1224   -0.9981   -5.6830 H         1 <0>         0.1133
     52 H20         6.6380   -1.4233   -4.0324 H         1 <0>         0.0894
     53 H21         6.6633   -3.2709   -6.4638 H         1 <0>         0.0817
     54 H22         8.0877   -2.5491   -5.6743 H         1 <0>         0.0950
     55 H23         7.6897   -4.9079   -4.9359 H         1 <0>         0.1133
     56 H24         7.5710   -3.7506   -3.5877 H         1 <0>         0.0890
     57 H25         5.7018   -5.3802   -3.5297 H         1 <0>         0.1313
     58 H26         5.2219   -4.8879   -5.1709 H         1 <0>         0.1294
     59 H27         5.3515   -3.1046   -2.8450 H         1 <0>         0.4257
@<TRIPOS>BOND
     1    1    6 ar
     2    1    2 ar
     3    1   33 1
     4    2    3 ar
     5    2   34 1
     6    3    4 ar
     7    3   32 1
     8    4    5 ar
     9    4   35 1
    10    5    6 ar
    11    5   36 1
    12    6    7 1
    13    7   11 2
    14    7    8 1
    15    8    9 2
    16    8   20 1
    17    9   10 1
    18    9   19 1
    19   10   11 1
    20   10   12 1
    21   12   17 ar
    22   12   13 ar
    23   13   14 ar
    24   13   37 1
    25   14   15 ar
    26   14   38 1
    27   15   16 ar
    28   15   18 1
    29   16   17 ar
    30   16   39 1
    31   17   40 1
    32   19   41 1
    33   19   42 1
    34   20   21 am
    35   20   43 1
    36   21   22 2
    37   21   23 am
    38   23   24 1
    39   23   44 1
    40   24   25 1
    41   24   45 1
    42   24   46 1
    43   25   26 1
    44   25   47 1
    45   25   48 1
    46   26   31 1
    47   26   27 1
    48   26   59 1
    49   27   28 1
    50   27   49 1
    51   27   50 1
    52   28   29 1
    53   28   51 1
    54   28   52 1
    55   29   30 1
    56   29   53 1
    57   29   54 1
    58   30   31 1
    59   30   55 1
    60   30   56 1
    61   31   57 1
    62   31   58 1
@<TRIPOS>MOLECULE
ZINC40780000
   42    44     0     0     0
SMALL
USER_CHARGES

@<TRIPOS>ATOM
      1 C1          1.1291   -0.7095   -0.0090 C.ar      1 <0>        -0.0140
      2 C2          2.3495   -0.0579   -0.0211 C.ar      1 <0>        -0.2114
      3 C3          2.3742    1.3326   -0.0104 C.ar      1 <0>         0.3845
      4 N1          1.2468    2.0269    0.0112 N.ar      1 <0>        -0.4574
      5 C4          0.0687    1.4333    0.0232 C.ar      1 <0>         0.1718
      6 C5         -0.0303    0.0552    0.0136 C.ar      1 <0>        -0.1861
      7 Br1        -1.7262   -0.7811    0.0305 Br        1 <0>        -0.0325
      8 N2          3.5951    2.0006   -0.0220 N.pl3     1 <0>        -0.6346
      9 C6          3.6281    3.3878   -0.1203 C.ar      1 <0>         0.3791
     10 C7          4.8450    4.0611   -0.2403 C.ar      1 <0>         0.0148
     11 C8          4.8212    5.4538   -0.3355 C.ar      1 <0>         0.3951
     12 N3          3.6481    6.0818   -0.3085 N.ar      1 <0>        -0.5649
     13 C9          2.5217    5.4078   -0.1940 C.ar      1 <0>         0.3166
     14 N4          2.4997    4.0932   -0.1070 N.ar      1 <0>        -0.4968
     15 N5          6.0041    6.1732   -0.4562 N.pl3     1 <0>        -0.7251
     16 C10         5.9660    7.6343   -0.5553 C.3       1 <0>         0.1417
     17 C11         7.3922    8.1746   -0.6781 C.3       1 <0>        -0.1558
     18 C12         7.3523    9.7006   -0.7816 C.3       1 <0>         0.0960
     19 N6          8.7179   10.2179   -0.8991 N.pl3     1 <0>        -0.4079
     20 C13         9.5427   10.5752    0.1331 C.2       1 <0>         0.0257
     21 C14        10.6980   10.9936   -0.4181 C.2       1 <0>         0.0039
     22 N7         10.5818   10.8944   -1.7507 N.pl3     1 <0>        -0.4763
     23 C15         9.4001   10.4257   -2.0459 C.cat     1 <0>         0.2884
     24 N8          6.0596    3.3571   -0.2640 N.pl3     1 <0>        -0.8763
     25 H1          1.0789   -1.7883   -0.0213 H         1 <0>         0.1478
     26 H2          3.2706   -0.6215   -0.0384 H         1 <0>         0.1413
     27 H3         -0.8299    2.0322    0.0411 H         1 <0>         0.1685
     28 H4          4.4231    1.4988    0.0385 H         1 <0>         0.4229
     29 H5          1.5874    5.9493   -0.1750 H         1 <0>         0.1987
     30 H6          6.8550    5.7079   -0.4747 H         1 <0>         0.4031
     31 H7          5.3908    7.9239   -1.4347 H         1 <0>         0.0743
     32 H8          5.4968    8.0470    0.3378 H         1 <0>         0.0746
     33 H9          7.9673    7.8850    0.2014 H         1 <0>         0.0863
     34 H10         7.8614    7.7619   -1.5712 H         1 <0>         0.0842
     35 H11         6.7771    9.9902   -1.6610 H         1 <0>         0.1273
     36 H12         6.8831   10.1132    0.1115 H         1 <0>         0.1300
     37 H13         9.3114   10.5306    1.1871 H         1 <0>         0.2232
     38 H14        11.5660   11.3470    0.1186 H         1 <0>         0.2240
     39 H15         9.0285   10.2376   -3.0423 H         1 <0>         0.2600
     40 H16         6.0608    2.3894   -0.1966 H         1 <0>         0.3962
     41 H17         6.8976    3.8384   -0.3478 H         1 <0>         0.3939
     42 H18        11.2689   11.1302   -2.3934 H         1 <0>         0.4657
@<TRIPOS>BOND
     1    1    6 ar
     2    1    2 ar
     3    1   25 1
     4    2    3 ar
     5    2   26 1
     6    3    4 ar
     7    3    8 1
     8    4    5 ar
     9    5    6 ar
    10    5   27 1
    11    6    7 1
    12    8    9 1
    13    8   28 1
    14    9   14 ar
    15    9   10 ar
    16   10   11 ar
    17   10   24 1
    18   11   12 ar
    19   11   15 1
    20   12   13 ar
    21   13   14 ar
    22   13   29 1
    23   15   16 1
    24   15   30 1
    25   16   17 1
    26   16   31 1
    27   16   32 1
    28   17   18 1
    29   17   33 1
    30   17   34 1
    31   18   19 1
    32   18   35 1
    33   18   36 1
    34   19   23 1
    35   19   20 1
    36   20   21 2
    37   20   37 1
    38   21   22 1
    39   21   38 1
    40   22   23 2
    41   22   42 1
    42   23   39 1
    43   24   40 1
    44   24   41 1
@<TRIPOS>MOLECULE
ZINC58884805
   60    63     0     0     0
SMALL
USER_CHARGES

@<TRIPOS>ATOM
      1 C1         -3.4629   -6.5969   -1.2730 C.ar      1 <0>        -0.1327
      2 C2         -2.2843   -6.6596   -1.9935 C.ar      1 <0>        -0.0993
      3 C3         -1.0859   -6.8776   -1.3423 C.ar      1 <0>        -0.1208
      4 C4         -1.0655   -7.0338    0.0374 C.ar      1 <0>         0.1569
      5 C5         -2.2508   -6.9703    0.7580 C.ar      1 <0>        -0.1456
      6 C6         -3.4459   -6.7521    0.1010 C.ar      1 <0>        -0.0988
      7 N1          0.1470   -7.2552    0.7001 N.am      1 <0>        -0.6799
      8 C7          1.2828   -6.7029    0.2295 C.2       1 <0>         0.7045
      9 O1          1.2411   -5.9383   -0.7149 O.2       1 <0>        -0.5485
     10 N2          2.4648   -6.9982    0.8058 N.am      1 <0>        -0.6810
     11 C8          3.6295   -6.3446    0.3882 C.ar      1 <0>         0.1859
     12 C9          3.5692   -5.0267   -0.0474 C.ar      1 <0>        -0.1292
     13 C10         4.7185   -4.3808   -0.4599 C.ar      1 <0>        -0.0747
     14 C11         5.9313   -5.0428   -0.4407 C.ar      1 <0>        -0.1572
     15 C12         5.9982   -6.3603   -0.0062 C.ar      1 <0>         0.1727
     16 C13         4.8464   -7.0101    0.4141 C.ar      1 <0>        -0.1482
     17 N3          7.2268   -7.0302    0.0125 N.am      1 <0>        -0.6755
     18 C14         7.2756   -8.3554   -0.2282 C.2       1 <0>         0.7100
     19 O2          6.2673   -8.9515   -0.5543 O.2       1 <0>        -0.5594
     20 N4          8.4420   -9.0197   -0.1076 N.am      1 <0>        -0.7410
     21 C15         8.4950  -10.4602   -0.3693 C.3       1 <0>         0.1211
     22 C16         9.8958  -10.9855   -0.0489 C.3       1 <0>         0.1257
     23 H1         10.1669  -10.7009    0.9677 H         1 <0>         0.1645
     24 C17        10.8876  -10.3945   -1.0175 C.2       1 <0>        -0.1050
     25 C18        11.7069   -9.3570   -0.7693 C.2       1 <0>        -0.1363
     26 C19        12.4601   -9.1392   -1.9458 C.2       1 <0>        -0.2110
     27 C20        12.0559  -10.0568   -2.8426 C.2       1 <0>         0.0121
     28 O3         11.1075  -10.8181   -2.2729 O.3       1 <0>        -0.1776
     29 N5          9.9086  -12.4497   -0.1674 N.4       1 <0>        -0.3920
     30 C21        11.2138  -12.9894    0.2925 C.3       1 <0>        -0.0010
     31 C22        10.8851  -14.4627    0.6414 C.3       1 <0>        -0.1439
     32 C23         9.4719  -14.3644    1.2603 C.3       1 <0>        -0.1425
     33 C24         8.8899  -13.0426    0.7260 C.3       1 <0>        -0.0160
     34 H2         -4.3981   -6.4220   -1.7840 H         1 <0>         0.1254
     35 H3         -2.3009   -6.5384   -3.0665 H         1 <0>         0.1268
     36 H4         -0.1658   -6.9268   -1.9056 H         1 <0>         0.1353
     37 H5         -2.2383   -7.0917    1.8311 H         1 <0>         0.1253
     38 H6         -4.3681   -6.7022    0.6609 H         1 <0>         0.1284
     39 H7          0.1699   -7.8061    1.4981 H         1 <0>         0.4084
     40 H8          2.5081   -7.6639    1.5101 H         1 <0>         0.4085
     41 H9          2.6227   -4.5068   -0.0640 H         1 <0>         0.1412
     42 H10         4.6690   -3.3565   -0.7984 H         1 <0>         0.1352
     43 H11         6.8281   -4.5352   -0.7641 H         1 <0>         0.1281
     44 H12         4.8966   -8.0330    0.7569 H         1 <0>         0.1367
     45 H13         8.0433   -6.5407    0.1988 H         1 <0>         0.4104
     46 H14         9.2464   -8.5441    0.1525 H         1 <0>         0.4031
     47 H15         7.7635  -10.9705    0.2573 H         1 <0>         0.1016
     48 H16         8.2679  -10.6474   -1.4188 H         1 <0>         0.0932
     49 H17        11.7758   -8.7972    0.1518 H         1 <0>         0.1611
     50 H18        13.2148   -8.3814   -2.0959 H         1 <0>         0.1648
     51 H19        12.4331  -10.1654   -3.8488 H         1 <0>         0.2192
     52 H20        11.9538  -12.9391   -0.5063 H         1 <0>         0.1351
     53 H21        11.5621  -12.4534    1.1754 H         1 <0>         0.1356
     54 H22        10.8703  -15.0781   -0.2581 H         1 <0>         0.0999
     55 H23        11.5975  -14.8554    1.3670 H         1 <0>         0.1197
     56 H24         8.8583  -15.2056    0.9380 H         1 <0>         0.1083
     57 H25         9.5363  -14.3370    2.3481 H         1 <0>         0.1065
     58 H26         8.6838  -12.3656    1.5550 H         1 <0>         0.1344
     59 H27         7.9749  -13.2388    0.1671 H         1 <0>         0.1384
     60 H28         9.7351  -12.7234   -1.1229 H         1 <0>         0.4331
@<TRIPOS>BOND
     1    1    6 ar
     2    1    2 ar
     3    1   34 1
     4    2    3 ar
     5    2   35 1
     6    3    4 ar
     7    3   36 1
     8    4    5 ar
     9    4    7 1
    10    5    6 ar
    11    5   37 1
    12    6   38 1
    13    7    8 am
    14    7   39 1
    15    8    9 2
    16    8   10 am
    17   10   11 1
    18   10   40 1
    19   11   16 ar
    20   11   12 ar
    21   12   13 ar
    22   12   41 1
    23   13   14 ar
    24   13   42 1
    25   14   15 ar
    26   14   43 1
    27   15   16 ar
    28   15   17 1
    29   16   44 1
    30   17   18 am
    31   17   45 1
    32   18   19 2
    33   18   20 am
    34   20   21 1
    35   20   46 1
    36   21   22 1
    37   21   47 1
    38   21   48 1
    39   22   23 1
    40   22   24 1
    41   22   29 1
    42   24   28 1
    43   24   25 2
    44   25   26 1
    45   25   49 1
    46   26   27 2
    47   26   50 1
    48   27   28 1
    49   27   51 1
    50   29   33 1
    51   29   30 1
    52   29   60 1
    53   30   31 1
    54   30   52 1
    55   30   53 1
    56   31   32 1
    57   31   54 1
    58   31   55 1
    59   32   33 1
    60   32   56 1
    61   32   57 1
    62   33   58 1
    63   33   59 1
@<TRIPOS>MOLECULE
ZINC63794383
   50    53     0     0     0
SMALL
USER_CHARGES

@<TRIPOS>ATOM
      1 C1         -0.0163    1.3482    0.0095 C.ar      1 <0>        -0.1459
      2 C2          1.1658    2.1014    0.0022 C.ar      1 <0>         0.0570
      3 C3          2.3912    1.5352   -0.0125 C.ar      1 <0>        -0.2087
      4 C4          2.5288    0.1198   -0.0218 C.ar      1 <0>         0.3314
      5 N1          3.5868   -0.6543   -0.0369 N.pl3     1 <0>        -0.5795
      6 C5          3.1432   -2.0528   -0.0408 C.3       1 <0>         0.0532
      7 C6          1.6315   -2.0084   -0.0255 C.2       1 <0>         0.0688
      8 C7          1.2951   -0.6984   -0.0144 C.ar      1 <0>        -0.1531
      9 C8          0.0021   -0.0041    0.0020 C.ar      1 <0>        -0.0150
     10 C9          0.6905   -3.1856   -0.0239 C.3       1 <0>        -0.0291
     11 H1         -0.3390   -2.8277   -0.0118 H         1 <0>         0.1334
     12 C10         0.9234   -4.0264   -1.2808 C.3       1 <0>         0.1302
     13 N2         -0.0696   -5.1019   -1.3397 N.am      1 <0>        -0.7262
     14 C11        -0.0582   -5.9740   -2.3672 C.2       1 <0>         0.5441
     15 O1          0.7742   -5.8685   -3.2430 O.2       1 <0>        -0.5094
     16 C12        -1.0796   -7.0804   -2.4279 C.3       1 <0>        -0.1647
     17 S1         -0.8035   -8.0773   -3.9180 S.3       1 <0>         0.1189
     18 C13        -2.0598   -9.3106   -3.8446 C.2       1 <0>         0.0626
     19 N3         -2.9754   -9.4663   -2.9383 N.2       1 <0>        -0.2475
     20 N4         -3.9155  -10.4716   -2.9788 N.pl3     1 <0>        -0.6092
     21 C14        -3.8161  -11.3819   -4.1419 C.3       1 <0>         0.3521
     22 H2         -4.7122  -11.3342   -4.7607 H         1 <0>         0.1383
     23 S2         -2.3735  -10.6318   -5.0041 S.3       1 <0>        -0.2284
     24 N5         -3.5361  -12.7607   -3.7194 N.3       1 <0>        -0.8118
     25 C15         0.9435   -4.0292    1.1989 C.ar      1 <0>        -0.0968
     26 C16         2.1896   -4.5913    1.4049 C.ar      1 <0>        -0.0971
     27 C17         2.4223   -5.3651    2.5261 C.ar      1 <0>        -0.0932
     28 C18         1.4082   -5.5773    3.4434 C.ar      1 <0>        -0.0115
     29 C19         0.1614   -5.0148    3.2380 C.ar      1 <0>        -0.0900
     30 C20        -0.0696   -4.2363    2.1179 C.ar      1 <0>        -0.0145
     31 Cl1        -1.6323   -3.5249    1.8623 Cl        1 <0>        -0.0381
     32 Cl2         1.7006   -6.5499    4.8514 Cl        1 <0>        -0.0304
     33 H3         -0.9665    1.8612    0.0259 H         1 <0>         0.1598
     34 H4          1.0933    3.1789    0.0083 H         1 <0>         0.1629
     35 H5          3.2717    2.1606   -0.0175 H         1 <0>         0.1629
     36 H6          3.4952   -2.5561   -0.9413 H         1 <0>         0.1784
     37 H7          3.5129   -2.5667    0.8465 H         1 <0>         0.1748
     38 H8         -0.9210   -0.5647    0.0081 H         1 <0>         0.1598
     39 H9          0.8274   -3.3944   -2.1637 H         1 <0>         0.0914
     40 H10         1.9242   -4.4572   -1.2494 H         1 <0>         0.0864
     41 H11        -0.7353   -5.1863   -0.6393 H         1 <0>         0.4073
     42 H12        -0.9836   -7.7123   -1.5450 H         1 <0>         0.1261
     43 H13        -2.0804   -6.6495   -2.4592 H         1 <0>         0.1274
     44 H14        -4.5942  -10.5760   -2.2937 H         1 <0>         0.4404
     45 H15        -3.4695  -13.3765   -4.5158 H         1 <0>         0.3681
     46 H16        -2.6989  -12.8038   -3.1579 H         1 <0>         0.3569
     47 H17         2.9814   -4.4260    0.6893 H         1 <0>         0.1422
     48 H18         3.3958   -5.8046    2.6862 H         1 <0>         0.1514
     49 H19        -0.6304   -5.1802    3.9536 H         1 <0>         0.1560
     50 H20         4.5087   -0.3528   -0.0446 H         1 <0>         0.4578
@<TRIPOS>BOND
     1    1    9 ar
     2    1    2 ar
     3    1   33 1
     4    2    3 ar
     5    2   34 1
     6    3    4 ar
     7    3   35 1
     8    4    8 ar
     9    4    5 2
    10    5    6 1
    11    5   50 1
    12    6    7 1
    13    6   36 1
    14    6   37 1
    15    7    8 2
    16    7   10 1
    17    8    9 ar
    18    9   38 1
    19   10   11 1
    20   10   12 1
    21   10   25 1
    22   12   13 1
    23   12   39 1
    24   12   40 1
    25   13   14 am
    26   13   41 1
    27   14   15 2
    28   14   16 1
    29   16   17 1
    30   16   42 1
    31   16   43 1
    32   17   18 1
    33   18   23 1
    34   18   19 2
    35   19   20 1
    36   20   21 1
    37   20   44 1
    38   21   22 1
    39   21   23 1
    40   21   24 1
    41   24   45 1
    42   24   46 1
    43   25   30 ar
    44   25   26 ar
    45   26   27 ar
    46   26   47 1
    47   27   28 ar
    48   27   48 1
    49   28   29 ar
    50   28   32 1
    51   29   30 ar
    52   29   49 1
    53   30   31 1
@<TRIPOS>MOLECULE
ZINC04973600
   44    48     0     0     0
SMALL
USER_CHARGES
2-furyl-(2-thienyl)BLAHone
@<TRIPOS>ATOM
      1 C1          3.6479    2.9144   -0.1735 C.ar      1 <0>        -0.1072
      2 C2          3.3297    2.1831    0.9564 C.ar      1 <0>        -0.1187
      3 C3          2.1099    1.5345    1.0480 C.ar      1 <0>        -0.1129
      4 C4          1.2115    1.6276   -0.0008 C.ar      1 <0>         0.1179
      5 C5          1.5138    2.3914   -1.1181 C.ar      1 <0>         0.1706
      6 C6          2.7436    3.0223   -1.2159 C.ar      1 <0>        -0.1121
      7 N1          0.5316    2.5587   -2.0929 N.pl3     1 <0>        -0.7698
      8 C7         -0.6964    3.2690   -1.8043 C.3       1 <0>         0.3249
      9 H1         -1.2636    3.3690   -2.7297 H         1 <0>         0.1137
     10 C8         -1.5757    2.6021   -0.7730 C.2       1 <0>        -0.3053
     11 C9         -1.2217    1.5791    0.0167 C.2       1 <0>         0.2727
     12 N2         -0.0111    0.9658    0.0074 N.pl3     1 <0>        -0.6834
     13 C10        -2.2031    1.0297    1.0393 C.3       1 <0>        -0.1046
     14 C11        -3.6292    1.1413    0.5029 C.3       1 <0>         0.0071
     15 H2         -3.7202    0.5760   -0.4246 H         1 <0>         0.1058
     16 C12        -3.9143    2.6244    0.2390 C.3       1 <0>        -0.1518
     17 C13        -2.8771    3.1515   -0.6909 C.2       1 <0>         0.4019
     18 O1         -3.1652    4.0849   -1.4141 O.2       1 <0>        -0.4667
     19 C14        -4.6017    0.6080    1.5232 C.2       1 <0>        -0.1429
     20 C15        -5.4800   -0.4182    1.4105 C.2       1 <0>        -0.1490
     21 C16        -6.2830   -0.7349    2.4901 C.2       1 <0>        -0.1576
     22 C17        -6.1685   -0.0099    3.6296 C.2       1 <0>        -0.1693
     23 S1         -4.8903    1.1590    3.1966 S.3       1 <0>         0.0380
     24 C18        -0.3458    4.6497   -1.3127 C.2       1 <0>        -0.0242
     25 C19        -0.9922    5.7857   -1.6308 C.2       1 <0>        -0.1869
     26 C20        -0.3322    6.8362   -0.9527 C.2       1 <0>        -0.2166
     27 C21         0.6781    6.2793   -0.2609 C.2       1 <0>        -0.0508
     28 O2          0.6614    4.9541   -0.4781 O.3       1 <0>        -0.1620
     29 H3          4.6079    3.4042   -0.2431 H         1 <0>         0.1240
     30 H4          4.0358    2.1179    1.7710 H         1 <0>         0.1258
     31 H5          1.8620    0.9613    1.9291 H         1 <0>         0.1258
     32 H6          2.9942    3.5934   -2.0976 H         1 <0>         0.1235
     33 H7          0.6735    2.1932   -2.9801 H         1 <0>         0.4007
     34 H8          0.0021   -0.0041    0.0020 H         1 <0>         0.4070
     35 H9         -1.9716   -0.0168    1.2375 H         1 <0>         0.0921
     36 H10        -2.1197    1.6005    1.9642 H         1 <0>         0.0997
     37 H11        -4.8218    2.7218   -0.1695 H         1 <0>         0.0930
     38 H12        -3.8754    3.1771    1.1777 H         1 <0>         0.1019
     39 H13        -5.5516   -0.9798    0.4908 H         1 <0>         0.1341
     40 H14        -6.9909   -1.5481    2.4267 H         1 <0>         0.1350
     41 H15        -6.7076   -0.1147    4.5595 H         1 <0>         0.1863
     42 H16        -1.8504    5.8777   -2.2800 H         1 <0>         0.1501
     43 H17        -0.5899    7.8845   -0.9840 H         1 <0>         0.1438
     44 H18         1.3803    6.8077    0.3669 H         1 <0>         0.1962
@<TRIPOS>BOND
     1    1    6 ar
     2    1    2 ar
     3    1   29 1
     4    2    3 ar
     5    2   30 1
     6    3    4 ar
     7    3   31 1
     8    4   12 1
     9    4    5 ar
    10    5    6 ar
    11    5    7 1
    12    6   32 1
    13    7    8 1
    14    7   33 1
    15    8    9 1
    16    8   10 1
    17    8   24 1
    18   10   17 1
    19   10   11 2
    20   11   12 1
    21   11   13 1
    22   12   34 1
    23   13   14 1
    24   13   35 1
    25   13   36 1
    26   14   15 1
    27   14   16 1
    28   14   19 1
    29   16   17 1
    30   16   37 1
    31   16   38 1
    32   17   18 2
    33   19   23 1
    34   19   20 2
    35   20   21 1
    36   20   39 1
    37   21   22 2
    38   21   40 1
    39   22   23 1
    40   22   41 1
    41   24   28 1
    42   24   25 2
    43   25   26 1
    44   25   42 1
    45   26   27 2
    46   26   43 1
    47   27   28 1
    48   27   44 1
@<TRIPOS>MOLECULE
ZINC13940007
   42    44     0     0     0
SMALL
USER_CHARGES
(3S)-4-chloro-3-[2-(2,4-dimethylphenyl)-2-oxo-ethyl]-3-hydroxy-7-methyl-indolin-2-one
@<TRIPOS>ATOM
      1 C1          4.8567    4.1823    0.4782 C.3       1 <0>        -0.1225
      2 C2          3.5974    3.3943    0.2249 C.ar      1 <0>        -0.0458
      3 C3          2.4249    4.0554   -0.0983 C.ar      1 <0>        -0.1414
      4 C4          1.2701    3.3413   -0.3375 C.ar      1 <0>        -0.0656
      5 C5          1.2828    1.9459   -0.2420 C.ar      1 <0>        -0.1805
      6 C6          2.4712    1.2855    0.0850 C.ar      1 <0>        -0.0131
      7 C7          3.6193    2.0137    0.3162 C.ar      1 <0>        -0.1386
      8 C8          2.4972   -0.2180    0.1849 C.3       1 <0>        -0.1272
      9 C9          0.0531    1.1763   -0.4902 C.2       1 <0>         0.3871
     10 O1          0.0907   -0.0354   -0.5144 O.2       1 <0>        -0.4172
     11 C10        -1.2516    1.8945   -0.7205 C.3       1 <0>        -0.1737
     12 C11        -2.3625    0.8698   -0.9589 C.3       1 <0>         0.1692
     13 C12        -3.6994    1.5609   -1.0979 C.ar      1 <0>        -0.1338
     14 C13        -4.1874    2.4860   -1.9950 C.ar      1 <0>         0.0324
     15 C14        -5.4862    2.9507   -1.8695 C.ar      1 <0>        -0.1311
     16 C15        -6.2872    2.4839   -0.8435 C.ar      1 <0>        -0.0622
     17 C16        -5.8005    1.5578    0.0557 C.ar      1 <0>        -0.1036
     18 C17        -4.4949    1.0848   -0.0639 C.ar      1 <0>         0.1728
     19 N1         -3.7844    0.1639    0.7068 N.am      1 <0>        -0.6579
     20 C18        -2.5327   -0.0200    0.2540 C.2       1 <0>         0.5049
     21 O2         -1.6967   -0.7602    0.7276 O.2       1 <0>        -0.4521
     22 C19        -6.6828    1.0560    1.1696 C.3       1 <0>        -0.1162
     23 Cl1        -3.1761    3.0680   -3.2804 Cl        1 <0>        -0.0503
     24 O3         -2.0781    0.0857   -2.1192 O.3       1 <0>        -0.5207
     25 H1          5.3999    4.3101   -0.4582 H         1 <0>         0.0770
     26 H2          4.5980    5.1601    0.8845 H         1 <0>         0.0711
     27 H3          5.4832    3.6466    1.1914 H         1 <0>         0.0706
     28 H4          2.4158    5.1331   -0.1676 H         1 <0>         0.1295
     29 H5          0.3572    3.8582   -0.5943 H         1 <0>         0.1303
     30 H6          4.5379    1.5051    0.5688 H         1 <0>         0.1293
     31 H7          2.6262   -0.6460   -0.8092 H         1 <0>         0.0780
     32 H8          3.3255   -0.5254    0.8232 H         1 <0>         0.0605
     33 H9          1.5586   -0.5699    0.6130 H         1 <0>         0.0962
     34 H10        -1.4743    2.4469    0.0828 H         1 <0>         0.1004
     35 H11        -1.1610    2.5418   -1.5928 H         1 <0>         0.1242
     36 H12        -5.8724    3.6752   -2.5712 H         1 <0>         0.1455
     37 H13        -7.2999    2.8463   -0.7457 H         1 <0>         0.1455
     38 H14        -4.1519   -0.2915    1.4803 H         1 <0>         0.4167
     39 H15        -6.5642    1.6964    2.0436 H         1 <0>         0.0768
     40 H16        -7.7232    1.0733    0.8449 H         1 <0>         0.0780
     41 H17        -6.3991    0.0352    1.4259 H         1 <0>         0.0640
     42 H18        -1.2453   -0.4032   -2.0691 H         1 <0>         0.3935
@<TRIPOS>BOND
     1    1    2 1
     2    1   25 1
     3    1   26 1
     4    1   27 1
     5    2    7 ar
     6    2    3 ar
     7    3    4 ar
     8    3   28 1
     9    4    5 ar
    10    4   29 1
    11    5    6 ar
    12    5    9 1
    13    6    7 ar
    14    6    8 1
    15    7   30 1
    16    8   31 1
    17    8   32 1
    18    8   33 1
    19    9   10 2
    20    9   11 1
    21   11   12 1
    22   11   34 1
    23   11   35 1
    24   12   20 1
    25   12   13 1
    26   12   24 1
    27   13   18 ar
    28   13   14 ar
    29   14   15 ar
    30   14   23 1
    31   15   16 ar
    32   15   36 1
    33   16   17 ar
    34   16   37 1
    35   17   18 ar
    36   17   22 1
    37   18   19 1
    38   19   20 am
    39   19   38 1
    40   20   21 2
    41   22   39 1
    42   22   40 1
    43   22   41 1
    44   24   42 1
@<TRIPOS>MOLECULE
ZINC37328719
   35    37     0     0     0
SMALL
USER_CHARGES

@<TRIPOS>ATOM
      1 C1         -0.0184    1.5028    0.0103 C.3       1 <0>        -0.1061
      2 C2          0.0021   -0.0041    0.0020 C.2       1 <0>        -0.0564
      3 C3          0.0058   -0.6772   -1.1595 C.2       1 <0>        -0.1588
      4 S1          0.0313   -2.3841   -0.6436 S.3       1 <0>         0.1289
      5 C4          0.0362   -2.1388    1.1118 C.2       1 <0>         0.0713
      6 C5          0.0240   -0.7452    1.2493 C.2       1 <0>        -0.2332
      7 C6          0.0301   -0.2526    2.6450 C.2       1 <0>         0.5459
      8 O1          0.0156    0.9452    2.8793 O.2       1 <0>        -0.4785
      9 N1          0.0513   -1.1426    3.6485 N.2       1 <0>        -0.5775
     10 C7          0.0669   -2.4302    3.4419 C.2       1 <0>         0.4345
     11 N2          0.0519   -2.9519    2.1988 N.pl3     1 <0>        -0.5683
     12 H1          0.0641   -3.9145    2.0802 H         1 <0>         0.4280
     13 C8          0.0904   -3.3615    4.6265 C.3       1 <0>         0.1734
     14 N3          0.0911   -2.5775    5.8641 N.pl3     1 <0>        -0.7331
     15 C9          0.1112   -3.2255    7.1012 C.ar      1 <0>         0.2231
     16 C10         0.1363   -4.6134    7.1598 C.ar      1 <0>        -0.1885
     17 C11         0.1561   -5.2514    8.3843 C.ar      1 <0>        -0.0642
     18 C12         0.1505   -4.5107    9.5521 C.ar      1 <0>        -0.1485
     19 C13         0.1255   -3.1284    9.4978 C.ar      1 <0>        -0.0397
     20 C14         0.1119   -2.4838    8.2753 C.ar      1 <0>        -0.1617
     21 Br1         0.1180   -2.1202   11.0976 Br        1 <0>        -0.0489
     22 C15        -0.0082   -0.1240   -2.5612 C.3       1 <0>        -0.0685
     23 H2          1.0042    1.8801    0.0026 H         1 <0>         0.0749
     24 H3         -0.5455    1.8639   -0.8728 H         1 <0>         0.0698
     25 H4         -0.5286    1.8543    0.9071 H         1 <0>         0.0839
     26 H5         -0.7913   -4.0020    4.6026 H         1 <0>         0.1036
     27 H6          0.9885   -3.9778    4.5863 H         1 <0>         0.1035
     28 H7          0.0776   -1.6084    5.8243 H         1 <0>         0.4230
     29 H8          0.1399   -5.1928    6.2484 H         1 <0>         0.1259
     30 H9          0.1756   -6.3303    8.4300 H         1 <0>         0.1317
     31 H10         0.1653   -5.0123   10.5084 H         1 <0>         0.1301
     32 H11         0.0972   -1.4047    8.2331 H         1 <0>         0.1333
     33 H12         1.0160    0.0234   -2.9039 H         1 <0>         0.0829
     34 H13        -0.5157   -0.8253   -3.2236 H         1 <0>         0.0764
     35 H14        -0.5351    0.8302   -2.5699 H         1 <0>         0.0879
@<TRIPOS>BOND
     1    1    2 1
     2    1   23 1
     3    1   24 1
     4    1   25 1
     5    2    6 1
     6    2    3 2
     7    3    4 1
     8    3   22 1
     9    4    5 1
    10    5   11 1
    11    5    6 2
    12    6    7 1
    13    7    8 2
    14    7    9 1
    15    9   10 2
    16   10   11 1
    17   10   13 1
    18   11   12 1
    19   13   14 1
    20   13   26 1
    21   13   27 1
    22   14   15 1
    23   14   28 1
    24   15   20 ar
    25   15   16 ar
    26   16   17 ar
    27   16   29 1
    28   17   18 ar
    29   17   30 1
    30   18   19 ar
    31   18   31 1
    32   19   20 ar
    33   19   21 1
    34   20   32 1
    35   22   33 1
    36   22   34 1
    37   22   35 1
@<TRIPOS>MOLECULE
ZINC00226857
   38    40     0     0     0
SMALL
USER_CHARGES

@<TRIPOS>ATOM
      1 C1         -0.0184    1.5028    0.0103 C.3       1 <0>        -0.1205
      2 C2          0.0021   -0.0041    0.0020 C.ar      1 <0>        -0.0731
      3 C3          0.0057   -0.6887   -1.1989 C.ar      1 <0>        -0.1178
      4 C4          0.0245   -2.0709   -1.2065 C.ar      1 <0>        -0.0954
      5 C5          0.0400   -2.7685   -0.0132 C.ar      1 <0>        -0.1111
      6 C6          0.0373   -2.0839    1.1877 C.ar      1 <0>        -0.0987
      7 C7          0.0229   -0.7016    1.1953 C.ar      1 <0>        -0.1178
      8 C8          0.0595   -4.2753   -0.0215 C.3       1 <0>         0.2026
      9 H1         -0.2923   -4.6406   -0.9863 H         1 <0>         0.0904
     10 C9          1.4875   -4.7731    0.2279 C.3       1 <0>        -0.1511
     11 C10         1.5275   -6.3038    0.1543 C.3       1 <0>         0.1336
     12 H2          1.3738   -6.6238   -0.8763 H         1 <0>         0.1355
     13 N1          0.4624   -6.8472    1.0009 N.pl3     1 <0>        -0.4003
     14 C11        -0.6200   -6.1257    1.4137 C.2       1 <0>         0.3842
     15 C12        -1.3900   -6.9329    2.1755 C.2       1 <0>        -0.2220
     16 C13        -0.7654   -8.1859    2.2316 C.2       1 <0>         0.1242
     17 N2          0.3405   -8.1317    1.5284 N.2       1 <0>        -0.2553
     18 C14        -1.2783   -9.3927    2.9743 C.3       1 <0>         0.1565
     19 O1         -2.1188  -10.1614    2.1113 O.3       1 <0>        -0.5618
     20 Cl1        -2.8831   -6.4965    2.9462 Cl        1 <0>        -0.0337
     21 N3         -0.8150   -4.7884    1.0518 N.pl3     1 <0>        -0.7194
     22 C15         2.8854   -6.8053    0.6495 C.3       1 <0>         0.4565
     23 F1          3.0782   -6.3981    1.9740 F         1 <0>        -0.1726
     24 F2          2.9197   -8.2023    0.5814 F         1 <0>        -0.1589
     25 F3          3.9000   -6.2742   -0.1540 F         1 <0>        -0.1718
     26 H3          1.0042    1.8801    0.0026 H         1 <0>         0.0741
     27 H4         -0.5455    1.8639   -0.8728 H         1 <0>         0.0692
     28 H5         -0.5286    1.8543    0.9071 H         1 <0>         0.0689
     29 H6         -0.0064   -0.1436   -2.1312 H         1 <0>         0.1273
     30 H7          0.0266   -2.6057   -2.1448 H         1 <0>         0.1273
     31 H8          0.0491   -2.6289    2.1200 H         1 <0>         0.1244
     32 H9          0.0245   -0.1667    2.1335 H         1 <0>         0.1260
     33 H10         2.1531   -4.3568   -0.5281 H         1 <0>         0.1230
     34 H11         1.8163   -4.4495    1.2155 H         1 <0>         0.1006
     35 H12        -0.4364  -10.0036    3.3002 H         1 <0>         0.0686
     36 H13        -1.8500   -9.0684    3.8438 H         1 <0>         0.0739
     37 H14        -2.4853  -10.9553    2.5242 H         1 <0>         0.3876
     38 H15        -1.4816   -4.2305    1.4821 H         1 <0>         0.4268
@<TRIPOS>BOND
     1    1    2 1
     2    1   26 1
     3    1   27 1
     4    1   28 1
     5    2    7 ar
     6    2    3 ar
     7    3    4 ar
     8    3   29 1
     9    4    5 ar
    10    4   30 1
    11    5    6 ar
    12    5    8 1
    13    6    7 ar
    14    6   31 1
    15    7   32 1
    16    8    9 1
    17    8   21 1
    18    8   10 1
    19   10   11 1
    20   10   33 1
    21   10   34 1
    22   11   12 1
    23   11   13 1
    24   11   22 1
    25   13   17 1
    26   13   14 1
    27   14   15 2
    28   14   21 1
    29   15   16 1
    30   15   20 1
    31   16   17 2
    32   16   18 1
    33   18   19 1
    34   18   35 1
    35   18   36 1
    36   19   37 1
    37   21   38 1
    38   22   23 1
    39   22   24 1
    40   22   25 1
@<TRIPOS>MOLECULE
ZINC64316480
   37    39     0     0     0
SMALL
USER_CHARGES

@<TRIPOS>ATOM
      1 C1         -0.0167    1.3780    0.0096 C.ar      1 <0>        -0.1410
      2 C2          1.1736    2.0822    0.0020 C.ar      1 <0>        -0.0808
      3 C3          2.3771    1.4104   -0.0135 C.ar      1 <0>        -0.1619
      4 C4          2.4042    0.0143   -0.0217 C.ar      1 <0>         0.1492
      5 C5          1.2062   -0.6818   -0.0136 C.ar      1 <0>        -0.1387
      6 C6          0.0021   -0.0041    0.0020 C.ar      1 <0>        -0.0678
      7 C7          1.5102   -2.1630   -0.0246 C.3       1 <0>        -0.0784
      8 C8          3.0455   -2.2430   -0.0403 C.3       1 <0>         0.1178
      9 H1          3.4062   -2.7613    0.8481 H         1 <0>         0.1188
     10 N1          3.5027   -0.8508   -0.0373 N.am      1 <0>        -0.5392
     11 C9          4.7929   -0.4612   -0.0488 C.2       1 <0>         0.5350
     12 O1          5.6769   -1.2914   -0.0624 O.2       1 <0>        -0.4890
     13 C10         5.1370    1.0060   -0.0446 C.3       1 <0>        -0.1041
     14 C11         6.6349    1.1706   -0.0594 C.ar      1 <0>        -0.0580
     15 C12         7.3349    1.2340    1.1310 C.ar      1 <0>        -0.0981
     16 C13         8.7088    1.3845    1.1180 C.ar      1 <0>        -0.0892
     17 C14         9.3833    1.4718   -0.0865 C.ar      1 <0>        -0.0871
     18 C15         8.6825    1.4083   -1.2774 C.ar      1 <0>        -0.0882
     19 C16         7.3092    1.2525   -1.2634 C.ar      1 <0>        -0.0941
     20 Br1        11.2629    1.6784   -0.1051 Br        1 <0>        -0.0501
     21 C17         3.5195   -2.9484   -1.2848 C.2       1 <0>         0.5128
     22 O2          4.2238   -2.3651   -2.0814 O.2       1 <0>        -0.5159
     23 N2          3.1608   -4.2275   -1.5124 N.am      1 <0>        -0.8511
     24 H2         -0.9583    1.9066    0.0259 H         1 <0>         0.1302
     25 H3          1.1601    3.1621    0.0080 H         1 <0>         0.1326
     26 H4          3.3031    1.9662   -0.0197 H         1 <0>         0.1371
     27 H5         -0.9265   -0.5555    0.0079 H         1 <0>         0.1287
     28 H6          1.1139   -2.6392    0.8722 H         1 <0>         0.1056
     29 H7          1.0961   -2.6295   -0.9184 H         1 <0>         0.0968
     30 H8          4.7105    1.4818   -0.9276 H         1 <0>         0.1146
     31 H9          4.7291    1.4723    0.8522 H         1 <0>         0.1141
     32 H10         6.8081    1.1662    2.0714 H         1 <0>         0.1302
     33 H11         9.2555    1.4344    2.0480 H         1 <0>         0.1343
     34 H12         9.2088    1.4763   -2.2181 H         1 <0>         0.1344
     35 H13         6.7624    1.1988   -2.1932 H         1 <0>         0.1310
     36 H14         2.5975   -4.6939   -0.8753 H         1 <0>         0.4025
     37 H15         3.4659   -4.6815   -2.3134 H         1 <0>         0.4071
@<TRIPOS>BOND
     1    1    6 ar
     2    1    2 ar
     3    1   24 1
     4    2    3 ar
     5    2   25 1
     6    3    4 ar
     7    3   26 1
     8    4   10 1
     9    4    5 ar
    10    5    6 ar
    11    5    7 1
    12    6   27 1
    13    7    8 1
    14    7   28 1
    15    7   29 1
    16    8    9 1
    17    8   10 1
    18    8   21 1
    19   10   11 am
    20   11   12 2
    21   11   13 1
    22   13   14 1
    23   13   30 1
    24   13   31 1
    25   14   19 ar
    26   14   15 ar
    27   15   16 ar
    28   15   32 1
    29   16   17 ar
    30   16   33 1
    31   17   18 ar
    32   17   20 1
    33   18   19 ar
    34   18   34 1
    35   19   35 1
    36   21   22 2
    37   21   23 am
    38   23   36 1
    39   23   37 1
@<TRIPOS>MOLECULE
ZINC08569987
   36    38     0     0     0
SMALL
USER_CHARGES
4,6-dichloro-3-hydroxy-3-(1-methyl-2-oxo-2-phenyl-ethyl)-indolin-2-one
@<TRIPOS>ATOM
      1 C1         -1.7517    2.1568    1.4741 C.3       1 <0>        -0.1510
      2 C2         -1.3296    1.9440    0.0189 C.3       1 <0>        -0.1000
      3 H1         -1.2399    2.8304   -0.4352 H         1 <0>         0.1085
      4 C3         -0.0066    1.2234   -0.0201 C.2       1 <0>         0.3883
      5 O1          0.0295    0.0348   -0.2575 O.2       1 <0>        -0.3983
      6 C4          1.2419    1.9633    0.2238 C.ar      1 <0>        -0.1620
      7 C5          1.2048    3.3354    0.4922 C.ar      1 <0>        -0.0792
      8 C6          2.3785    4.0207    0.7244 C.ar      1 <0>        -0.1311
      9 C7          3.5919    3.3562    0.6825 C.ar      1 <0>        -0.0896
     10 C8          3.6374    1.9997    0.4119 C.ar      1 <0>        -0.1304
     11 C9          2.4720    1.2992    0.1828 C.ar      1 <0>        -0.0612
     12 C10        -2.3879    1.1067   -0.7019 C.3       1 <0>         0.1736
     13 C11        -3.7205    1.8199   -0.6979 C.ar      1 <0>        -0.1819
     14 C12        -4.6022    0.9968   -0.0084 C.ar      1 <0>         0.1912
     15 C13        -5.9235    1.4081    0.1525 C.ar      1 <0>        -0.1355
     16 C14        -6.3421    2.6165   -0.3688 C.ar      1 <0>         0.0221
     17 C15        -5.4550    3.4275   -1.0540 C.ar      1 <0>        -0.1301
     18 C16        -4.1395    3.0250   -1.2173 C.ar      1 <0>         0.0492
     19 Cl1        -3.0210    4.0373   -2.0764 Cl        1 <0>        -0.0334
     20 Cl2        -7.9907    3.1204   -0.1637 Cl        1 <0>        -0.0373
     21 N1         -3.9489   -0.1601    0.4178 N.am      1 <0>        -0.6619
     22 C17        -2.6551   -0.1767    0.0554 C.2       1 <0>         0.5019
     23 O2         -1.8524   -1.0551    0.2903 O.2       1 <0>        -0.4276
     24 O3         -1.9735    0.8217   -2.0394 O.3       1 <0>        -0.5079
     25 H2         -1.8495    1.1906    1.9690 H         1 <0>         0.0628
     26 H3         -0.9976    2.7533    1.9876 H         1 <0>         0.0832
     27 H4         -2.7085    2.6781    1.5023 H         1 <0>         0.0755
     28 H5          0.2590    3.8559    0.5215 H         1 <0>         0.1295
     29 H6          2.3513    5.0794    0.9358 H         1 <0>         0.1297
     30 H7          4.5082    3.8993    0.8615 H         1 <0>         0.1279
     31 H8          4.5882    1.4883    0.3806 H         1 <0>         0.1299
     32 H9          2.5090    0.2406   -0.0275 H         1 <0>         0.1341
     33 H10        -6.6220    0.7804    0.6858 H         1 <0>         0.1488
     34 H11        -5.7869    4.3717   -1.4599 H         1 <0>         0.1555
     35 H12        -4.3794   -0.8709    0.9183 H         1 <0>         0.4200
     36 H13        -2.6072    0.2930   -2.5434 H         1 <0>         0.3866
@<TRIPOS>BOND
     1    1    2 1
     2    1   25 1
     3    1   26 1
     4    1   27 1
     5    2    3 1
     6    2    4 1
     7    2   12 1
     8    4    5 2
     9    4    6 1
    10    6   11 ar
    11    6    7 ar
    12    7    8 ar
    13    7   28 1
    14    8    9 ar
    15    8   29 1
    16    9   10 ar
    17    9   30 1
    18   10   11 ar
    19   10   31 1
    20   11   32 1
    21   12   22 1
    22   12   13 1
    23   12   24 1
    24   13   18 ar
    25   13   14 ar
    26   14   15 ar
    27   14   21 1
    28   15   16 ar
    29   15   33 1
    30   16   17 ar
    31   16   20 1
    32   17   18 ar
    33   17   34 1
    34   18   19 1
    35   21   22 am
    36   21   35 1
    37   22   23 2
    38   24   36 1
@<TRIPOS>MOLECULE
ZINC35306973
   29    31     0     0     0
SMALL
USER_CHARGES

@<TRIPOS>ATOM
      1 C1         -0.0257    1.4999    0.1030 C.ar      1 <0>        -0.1156
      2 C2          1.1672    2.1892    0.0158 C.ar      1 <0>        -0.0612
      3 C3          2.3749    1.4975    0.0762 C.ar      1 <0>        -0.0333
      4 C4          2.3721    0.1122    0.2244 C.ar      1 <0>        -0.0361
      5 C5          1.1732   -0.5678    0.3106 C.ar      1 <0>        -0.0990
      6 C6         -0.0237    0.1249    0.2501 C.ar      1 <0>        -0.0630
      7 Br1         1.1667   -2.4480    0.5118 Br        1 <0>        -0.0342
      8 C7          3.6604    2.2339   -0.0176 C.2       1 <0>         0.3003
      9 N1          4.8820    1.6799    0.0224 N.2       1 <0>        -0.5184
     10 C8          5.8006    2.6134   -0.0865 C.2       1 <0>         0.3530
     11 O1          5.1806    3.8016   -0.2003 O.3       1 <0>        -0.0990
     12 N2          3.7876    3.5310   -0.1587 N.2       1 <0>        -0.3320
     13 C9          7.2590    2.3959   -0.0837 C.ar      1 <0>        -0.1749
     14 C10         8.0904    3.1928    0.7184 C.ar      1 <0>         0.2931
     15 C11         9.4616    2.9785    0.7131 C.ar      1 <0>        -0.2115
     16 C12        10.0050    1.9852   -0.0782 C.ar      1 <0>        -0.0066
     17 C13         9.1902    1.1962   -0.8714 C.ar      1 <0>        -0.2154
     18 C14         7.8221    1.3905   -0.8759 C.ar      1 <0>         0.2058
     19 F1          7.0307    0.6139   -1.6477 F         1 <0>        -0.1184
     20 N3          7.5426    4.1932    1.5148 N.pl3     1 <0>        -0.8556
     21 H1         -0.9623    2.0360    0.0608 H         1 <0>         0.1444
     22 H2          1.1642    3.2630   -0.0994 H         1 <0>         0.1401
     23 H3          3.3056   -0.4288    0.2713 H         1 <0>         0.1500
     24 H4         -0.9593   -0.4103    0.3183 H         1 <0>         0.1421
     25 H5         10.1050    3.5897    1.3286 H         1 <0>         0.1411
     26 H6         11.0728    1.8235   -0.0783 H         1 <0>         0.1441
     27 H7          9.6253    0.4223   -1.4864 H         1 <0>         0.1463
     28 H8          6.5794    4.2825    1.5873 H         1 <0>         0.4026
     29 H9          8.1238    4.8015    1.9975 H         1 <0>         0.4113
@<TRIPOS>BOND
     1    1    6 ar
     2    1    2 ar
     3    1   21 1
     4    2    3 ar
     5    2   22 1
     6    3    4 ar
     7    3    8 1
     8    4    5 ar
     9    4   23 1
    10    5    6 ar
    11    5    7 1
    12    6   24 1
    13    8   12 2
    14    8    9 1
    15    9   10 2
    16   10   11 1
    17   10   13 1
    18   11   12 1
    19   13   18 ar
    20   13   14 ar
    21   14   15 ar
    22   14   20 1
    23   15   16 ar
    24   15   25 1
    25   16   17 ar
    26   16   26 1
    27   17   18 ar
    28   17   27 1
    29   18   19 1
    30   20   28 1
    31   20   29 1
@<TRIPOS>MOLECULE
ZINC40290607
   32    33     0     0     0
SMALL
USER_CHARGES

@<TRIPOS>ATOM
      1 C1          0.5900    1.4650    0.0004 C.3       1 <0>        -0.1228
      2 C2          0.3827   -0.0277   -0.0042 C.ar      1 <0>        -0.0311
      3 C3          0.2527   -0.7273   -1.1955 C.ar      1 <0>         0.0477
      4 N1          0.0725   -2.0330   -1.1763 N.ar      1 <0>        -0.2012
      5 N2          0.0107   -2.7001   -0.0815 N.ar      1 <0>        -0.2855
      6 C4          0.1239   -2.1200    1.1028 C.ar      1 <0>         0.2552
      7 C5          0.3221   -0.7435    1.1815 C.ar      1 <0>        -0.0934
      8 C6          0.4608   -0.0533    2.5139 C.3       1 <0>         0.1061
      9 N3         -0.8653    0.3608    2.9913 N.3       1 <0>        -0.8417
     10 O1          0.0521   -2.8638    2.2354 O.3       1 <0>        -0.2311
     11 C7         -0.0347   -4.2143    2.1075 C.ar      1 <0>         0.1149
     12 C8         -1.2760   -4.8333    2.1055 C.ar      1 <0>        -0.0796
     13 C9         -1.3622   -6.2069    1.9753 C.ar      1 <0>        -0.0167
     14 C10        -0.2102   -6.9649    1.8471 C.ar      1 <0>        -0.0145
     15 C11         1.0286   -6.3494    1.8489 C.ar      1 <0>        -0.0793
     16 C12         1.1186   -4.9753    1.9730 C.ar      1 <0>        -0.0220
     17 Cl1         2.6732   -4.2028    1.9681 Cl        1 <0>        -0.0306
     18 Cl2        -0.3210   -8.6897    1.6844 Cl        1 <0>        -0.0235
     19 Cl3        -2.9155   -6.9823    1.9733 Cl        1 <0>        -0.0246
     20 C13         0.3170    0.0054   -2.5108 C.3       1 <0>        -0.1012
     21 H1          1.6573    1.6837   -0.0317 H         1 <0>         0.0855
     22 H2          0.1031    1.9020   -0.8715 H         1 <0>         0.0850
     23 H3          0.1593    1.8888    0.9076 H         1 <0>         0.0901
     24 H4          0.9082   -0.7390    3.2335 H         1 <0>         0.0514
     25 H5          1.0978    0.8244    2.4038 H         1 <0>         0.0924
     26 H6         -1.4942   -0.4267    3.0401 H         1 <0>         0.3444
     27 H7         -0.7991    0.8265    3.8840 H         1 <0>         0.3509
     28 H8         -2.1745   -4.2426    2.2058 H         1 <0>         0.1592
     29 H9          1.9258   -6.9421    1.7487 H         1 <0>         0.1629
     30 H10         1.3501    0.0415   -2.8565 H         1 <0>         0.0852
     31 H11        -0.2946   -0.5158   -3.2474 H         1 <0>         0.0839
     32 H12        -0.0581    1.0204   -2.3800 H         1 <0>         0.0840
@<TRIPOS>BOND
     1    1    2 1
     2    1   21 1
     3    1   22 1
     4    1   23 1
     5    2    7 ar
     6    2    3 ar
     7    3    4 ar
     8    3   20 1
     9    4    5 ar
    10    5    6 ar
    11    6    7 ar
    12    6   10 1
    13    7    8 1
    14    8    9 1
    15    8   24 1
    16    8   25 1
    17    9   26 1
    18    9   27 1
    19   10   11 1
    20   11   16 ar
    21   11   12 ar
    22   12   13 ar
    23   12   28 1
    24   13   14 ar
    25   13   19 1
    26   14   15 ar
    27   14   18 1
    28   15   16 ar
    29   15   29 1
    30   16   17 1
    31   20   30 1
    32   20   31 1
    33   20   32 1
@<TRIPOS>MOLECULE
ZINC48474627
   31    32     0     0     0
SMALL
USER_CHARGES

@<TRIPOS>ATOM
      1 C1         -0.0304    1.5037    0.0209 C.3       1 <0>        -0.1658
      2 C2          0.0014   -0.0259    0.0107 C.3       1 <0>         0.2501
      3 H1          0.5337   -0.3842    0.8918 H         1 <0>         0.1199
      4 C3         -1.4086   -0.5578    0.0248 C.2       1 <0>        -0.0318
      5 C4         -2.0662   -1.0146    1.1056 C.2       1 <0>        -0.1881
      6 C5         -3.3503   -1.4111    0.6664 C.2       1 <0>        -0.2122
      7 C6         -3.4005   -1.1729   -0.6565 C.2       1 <0>        -0.0327
      8 O1         -2.2237   -0.6506   -1.0386 O.3       1 <0>        -0.1752
      9 N1          0.6871   -0.4921   -1.1971 N.am      1 <0>        -0.7343
     10 C7          2.0310   -0.5928   -1.2127 C.2       1 <0>         0.7115
     11 O2          2.6743   -0.2968   -0.2243 O.2       1 <0>        -0.5657
     12 N2          2.6618   -1.0216   -2.3238 N.am      1 <0>        -0.6822
     13 C8          4.0613   -1.0372   -2.3726 C.ar      1 <0>         0.1932
     14 C9          4.7939   -1.3261   -1.2292 C.ar      1 <0>        -0.1038
     15 C10         6.1741   -1.3414   -1.2800 C.ar      1 <0>        -0.0640
     16 C11         6.8274   -1.0686   -2.4689 C.ar      1 <0>        -0.0991
     17 C12         6.1007   -0.7799   -3.6101 C.ar      1 <0>        -0.0615
     18 C13         4.7192   -0.7693   -3.5667 C.ar      1 <0>        -0.0637
     19 Cl1         3.8073   -0.4139   -5.0005 Cl        1 <0>        -0.0524
     20 Br1         8.7171   -1.0900   -2.5336 Br        1 <0>        -0.0350
     21 H2          0.9894    1.8884    0.0107 H         1 <0>         0.0746
     22 H3         -0.5627    1.8620   -0.8603 H         1 <0>         0.0630
     23 H4         -0.5406    1.8505    0.9195 H         1 <0>         0.0751
     24 H5         -1.6861   -1.0687    2.1150 H         1 <0>         0.1521
     25 H6         -4.1393   -1.8261    1.2761 H         1 <0>         0.1519
     26 H7         -4.2453   -1.3652   -1.3013 H         1 <0>         0.2058
     27 H8          0.1739   -0.7282   -1.9856 H         1 <0>         0.4044
     28 H9          2.1465   -1.3195   -3.0897 H         1 <0>         0.4122
     29 H10         4.2850   -1.5384   -0.3006 H         1 <0>         0.1611
     30 H11         6.7440   -1.5661   -0.3906 H         1 <0>         0.1445
     31 H12         6.6131   -0.5667   -4.5365 H         1 <0>         0.1481
@<TRIPOS>BOND
     1    1    2 1
     2    1   21 1
     3    1   22 1
     4    1   23 1
     5    2    3 1
     6    2    4 1
     7    2    9 1
     8    4    8 1
     9    4    5 2
    10    5    6 1
    11    5   24 1
    12    6    7 2
    13    6   25 1
    14    7    8 1
    15    7   26 1
    16    9   10 am
    17    9   27 1
    18   10   11 2
    19   10   12 am
    20   12   13 1
    21   12   28 1
    22   13   18 ar
    23   13   14 ar
    24   14   15 ar
    25   14   29 1
    26   15   16 ar
    27   15   30 1
    28   16   17 ar
    29   16   20 1
    30   17   18 ar
    31   17   31 1
    32   18   19 1
@<TRIPOS>MOLECULE
ZINC05915357
   31    32     0     0     0
SMALL
USER_CHARGES

@<TRIPOS>ATOM
      1 C1         -1.8849    1.1112   -1.4268 C.3       1 <0>         0.0210
      2 O1         -1.7046   -0.3046   -1.3550 O.3       1 <0>        -0.2957
      3 C2         -0.6881   -0.8345   -2.0836 C.ar      1 <0>         0.1921
      4 C3          0.1212   -0.0053   -2.8463 C.ar      1 <0>        -0.2392
      5 C4          1.1579   -0.5422   -3.5898 C.ar      1 <0>         0.2065
      6 C5          1.3870   -1.9239   -3.5690 C.ar      1 <0>        -0.1113
      7 C6          0.5684   -2.7507   -2.7987 C.ar      1 <0>        -0.0131
      8 C7         -0.4586   -2.2057   -2.0578 C.ar      1 <0>        -0.1416
      9 Br1        -1.5628   -3.3269   -1.0093 Br        1 <0>        -0.0221
     10 C8          2.4926   -2.5047   -4.3614 C.2       1 <0>         0.2152
     11 N1          3.3257   -1.7228   -4.9884 N.2       1 <0>        -0.3053
     12 O2          4.3381   -2.2784   -5.8077 O.3       1 <0>        -0.3996
     13 C9          2.6531   -3.9756   -4.4425 C.ar      1 <0>        -0.0943
     14 C10         1.5304   -4.7990   -4.5199 C.ar      1 <0>        -0.1018
     15 C11         1.6862   -6.1680   -4.5957 C.ar      1 <0>        -0.1221
     16 C12         2.9530   -6.7239   -4.5948 C.ar      1 <0>        -0.1029
     17 C13         4.0706   -5.9121   -4.5182 C.ar      1 <0>        -0.1232
     18 C14         3.9276   -4.5414   -4.4474 C.ar      1 <0>        -0.0732
     19 O3          1.9503    0.2682   -4.3376 O.3       1 <0>        -0.4742
     20 H1         -0.9818    1.6106   -1.0761 H         1 <0>         0.0615
     21 H2         -2.0825    1.4004   -2.4590 H         1 <0>         0.0622
     22 H3         -2.7278    1.4023   -0.8001 H         1 <0>         0.1088
     23 H4         -0.0580    1.0596   -2.8603 H         1 <0>         0.1505
     24 H5          0.7414   -3.8166   -2.7801 H         1 <0>         0.1576
     25 H6          4.9068   -1.6206   -6.2309 H         1 <0>         0.4030
     26 H7          0.5410   -4.3661   -4.5203 H         1 <0>         0.1295
     27 H8          0.8174   -6.8067   -4.6553 H         1 <0>         0.1290
     28 H9          3.0700   -7.7959   -4.6539 H         1 <0>         0.1263
     29 H10         5.0570   -6.3518   -4.5175 H         1 <0>         0.1271
     30 H11         4.8009   -3.9084   -4.3917 H         1 <0>         0.1297
     31 H12         2.7252    0.6040   -3.8666 H         1 <0>         0.3998
@<TRIPOS>BOND
     1    1    2 1
     2    1   20 1
     3    1   21 1
     4    1   22 1
     5    2    3 1
     6    3    8 ar
     7    3    4 ar
     8    4    5 ar
     9    4   23 1
    10    5    6 ar
    11    5   19 1
    12    6    7 ar
    13    6   10 1
    14    7    8 ar
    15    7   24 1
    16    8    9 1
    17   10   11 2
    18   10   13 1
    19   11   12 1
    20   12   25 1
    21   13   18 ar
    22   13   14 ar
    23   14   15 ar
    24   14   26 1
    25   15   16 ar
    26   15   27 1
    27   16   17 ar
    28   16   28 1
    29   17   18 ar
    30   17   29 1
    31   18   30 1
    32   19   31 1
@<TRIPOS>MOLECULE
ZINC33502013
   49    50     0     0     0
SMALL
USER_CHARGES
2-[(2R)-6-[(1R)-1-amino-2,2-dimethyl-propyl]-2-methyl-3-oxo-1,4-benzoxazin-4-yl]-N-methyl-acetamide
@<TRIPOS>ATOM
      1 C1         -3.8390    0.8077   -3.0077 C.3       1 <0>        -0.1419
      2 C2         -2.4038    1.3370   -2.9767 C.3       1 <0>         0.0849
      3 H1         -1.8407    1.0405   -3.8739 H         1 <0>         0.1122
      4 C3         -1.7082    0.8364   -1.7366 C.2       1 <0>         0.4964
      5 O1         -2.0364   -0.2200   -1.2390 O.2       1 <0>        -0.4788
      6 N1         -0.7213    1.5711   -1.1789 N.am      1 <0>        -0.5384
      7 C4         -0.3815    2.8027   -1.7567 C.ar      1 <0>         0.1228
      8 C5          0.8094    3.4317   -1.4337 C.ar      1 <0>        -0.1019
      9 C6          1.1253    4.6460   -2.0152 C.ar      1 <0>        -0.1309
     10 C7          0.2560    5.2328   -2.9163 C.ar      1 <0>        -0.1127
     11 C8         -0.9351    4.6098   -3.2425 C.ar      1 <0>        -0.0968
     12 C9         -1.2578    3.3942   -2.6651 C.ar      1 <0>         0.1146
     13 O2         -2.4238    2.7669   -2.9754 O.3       1 <0>        -0.2968
     14 C10         2.4208    5.3319   -1.6654 C.3       1 <0>         0.1034
     15 H2          2.7847    4.9653   -0.6943 H         1 <0>         0.1413
     16 C11         3.4488    5.0733   -2.7687 C.3       1 <0>        -0.0743
     17 C12         2.9223    5.6238   -4.0956 C.3       1 <0>        -0.1723
     18 C13         4.7640    5.7698   -2.4136 C.3       1 <0>        -0.1652
     19 C14         3.6881    3.5679   -2.9001 C.3       1 <0>        -0.1492
     20 N2          2.1910    6.7774   -1.5393 N.4       1 <0>        -0.6887
     21 C15        -0.0127    1.0858    0.0080 C.3       1 <0>         0.0836
     22 C16        -0.7181    1.5718    1.2479 C.2       1 <0>         0.4943
     23 O3         -1.7145    2.2562    1.1498 O.2       1 <0>        -0.5267
     24 N3         -0.2416    1.2460    2.4658 N.am      1 <0>        -0.7409
     25 C17        -0.9273    1.7184    3.6711 C.3       1 <0>         0.0868
     26 H3         -3.8242   -0.2922   -3.0087 H         1 <0>         0.0997
     27 H4         -4.3433    1.1685   -3.9163 H         1 <0>         0.0884
     28 H5         -4.3813    1.1663   -2.1204 H         1 <0>         0.0771
     29 H6          1.4897    2.9748   -0.7303 H         1 <0>         0.1391
     30 H7          0.5079    6.1814   -3.3669 H         1 <0>         0.1316
     31 H8         -1.6121    5.0714   -3.9460 H         1 <0>         0.1521
     32 H9          3.6614    5.4379   -4.8888 H         1 <0>         0.0849
     33 H10         2.7503    6.7062   -4.0011 H         1 <0>         0.0518
     34 H11         1.9767    5.1232   -4.3509 H         1 <0>         0.0826
     35 H12         5.5031    5.5839   -3.2068 H         1 <0>         0.0864
     36 H13         5.1425    5.3741   -1.4596 H         1 <0>         0.0740
     37 H14         4.5918    6.8521   -2.3191 H         1 <0>         0.0537
     38 H15         4.4272    3.3820   -3.6933 H         1 <0>         0.0771
     39 H16         2.7425    3.0672   -3.1553 H         1 <0>         0.0701
     40 H17         4.0667    3.1722   -1.9461 H         1 <0>         0.0661
     41 H18         3.1366    7.2781   -1.2840 H         1 <0>         0.4556
     42 H19         1.4518    6.9633   -0.7462 H         1 <0>         0.4600
     43 H20         0.0022   -0.0141    0.0019 H         1 <0>         0.1303
     44 H21         1.0193    1.4665    0.0002 H         1 <0>         0.1170
     45 H22         0.6622    0.6254    2.5548 H         1 <0>         0.4267
     46 H23        -0.3952    1.3540    4.5622 H         1 <0>         0.0822
     47 H24        -1.9592    1.3376    3.6789 H         1 <0>         0.0619
     48 H25        -0.9423    2.8183    3.6771 H         1 <0>         0.0589
     49 H26         1.8125    7.1731   -2.4933 H         1 <0>         0.4475
@<TRIPOS>BOND
     1    1    2 1
     2    1   26 1
     3    1   27 1
     4    1   28 1
     5    2    3 1
     6    2   13 1
     7    2    4 1
     8    4    5 2
     9    4    6 am
    10    6    7 1
    11    6   21 1
    12    7   12 ar
    13    7    8 ar
    14    8    9 ar
    15    8   29 1
    16    9   10 ar
    17    9   14 1
    18   10   11 ar
    19   10   30 1
    20   11   12 ar
    21   11   31 1
    22   12   13 1
    23   14   15 1
    24   14   16 1
    25   14   20 1
    26   16   17 1
    27   16   18 1
    28   16   19 1
    29   17   32 1
    30   17   33 1
    31   17   34 1
    32   18   35 1
    33   18   36 1
    34   18   37 1
    35   19   38 1
    36   19   39 1
    37   19   40 1
    38   20   41 1
    39   20   42 1
    40   20   49 1
    41   21   22 1
    42   21   43 1
    43   21   44 1
    44   22   23 2
    45   22   24 am
    46   24   25 1
    47   24   45 1
    48   25   46 1
    49   25   47 1
    50   25   48 1
@<TRIPOS>MOLECULE
ZINC37822497
   40    41     0     0     0
SMALL
USER_CHARGES

@<TRIPOS>ATOM
      1 C1         -0.0167    1.3782    0.0096 C.ar      1 <0>        -0.0918
      2 C2          1.1706    2.0858    0.0021 C.ar      1 <0>        -0.1097
      3 C3          2.3780    1.4104   -0.0130 C.ar      1 <0>        -0.0259
      4 C4          2.3961    0.0270   -0.0206 C.ar      1 <0>        -0.1113
      5 C5          1.2082   -0.6795   -0.0130 C.ar      1 <0>        -0.0759
      6 C6          0.0021   -0.0041    0.0020 C.ar      1 <0>        -0.0914
      7 C7         -1.2928   -0.7750    0.0107 C.3       1 <0>         0.1249
      8 H1         -2.0862   -0.1588   -0.4124 H         1 <0>         0.0766
      9 C8         -1.6528   -1.1550    1.4515 C.3       1 <0>         0.0872
     10 N1         -2.8119   -2.0609    1.4167 N.am      1 <0>        -0.6061
     11 C9         -2.7508   -3.2281    0.5227 C.3       1 <0>         0.0635
     12 C10        -2.3373   -2.7471   -0.8729 C.3       1 <0>         0.0475
     13 O1         -1.1455   -1.9647   -0.7681 O.3       1 <0>        -0.3644
     14 C11        -3.8971   -1.8288    2.1815 C.2       1 <0>         0.5118
     15 O2         -3.9282   -0.8614    2.9123 O.2       1 <0>        -0.5319
     16 C12        -5.0719   -2.7712    2.1284 C.3       1 <0>         0.0963
     17 N2         -6.1151   -2.3031    3.0442 N.am      1 <0>        -0.6915
     18 C13        -7.2662   -2.9939    3.1640 C.2       1 <0>         0.4991
     19 O3         -7.4384   -4.0029    2.5135 O.2       1 <0>        -0.5291
     20 C14        -8.3394   -2.5124    4.1061 C.3       1 <0>        -0.0247
     21 N3         -9.4846   -3.4311    4.0543 N.4       1 <0>        -0.6205
     22 Cl1         3.8696    2.2984   -0.0231 Cl        1 <0>        -0.0604
     23 H2         -0.9592    1.9053    0.0259 H         1 <0>         0.1331
     24 H3          1.1558    3.1656    0.0076 H         1 <0>         0.1387
     25 H4          3.3383   -0.5007   -0.0327 H         1 <0>         0.1381
     26 H5          1.2222   -1.7594   -0.0193 H         1 <0>         0.1383
     27 H6         -0.8074   -1.6583    1.9206 H         1 <0>         0.0876
     28 H7         -1.9054   -0.2573    2.0158 H         1 <0>         0.1089
     29 H8         -2.0160   -3.9402    0.8982 H         1 <0>         0.0918
     30 H9         -3.7305   -3.7033    0.4719 H         1 <0>         0.0972
     31 H10        -2.1522   -3.6083   -1.5148 H         1 <0>         0.1177
     32 H11        -3.1349   -2.1388   -1.2995 H         1 <0>         0.0604
     33 H12        -5.4670   -2.8024    1.1130 H         1 <0>         0.1125
     34 H13        -4.7502   -3.7698    2.4240 H         1 <0>         0.1133
     35 H14        -5.9774   -1.4961    3.5645 H         1 <0>         0.4231
     36 H15        -7.9442   -2.4812    5.1214 H         1 <0>         0.1673
     37 H16        -8.6611   -1.5138    3.8105 H         1 <0>         0.1672
     38 H17        -9.8504   -3.4600    3.1144 H         1 <0>         0.4429
     39 H18        -9.1868   -4.3555    4.3279 H         1 <0>         0.4429
     40 H19       -10.2031   -3.1087    4.6851 H         1 <0>         0.4468
@<TRIPOS>BOND
     1    1    6 ar
     2    1    2 ar
     3    1   23 1
     4    2    3 ar
     5    2   24 1
     6    3    4 ar
     7    3   22 1
     8    4    5 ar
     9    4   25 1
    10    5    6 ar
    11    5   26 1
    12    6    7 1
    13    7    8 1
    14    7   13 1
    15    7    9 1
    16    9   10 1
    17    9   27 1
    18    9   28 1
    19   10   11 1
    20   10   14 am
    21   11   12 1
    22   11   29 1
    23   11   30 1
    24   12   13 1
    25   12   31 1
    26   12   32 1
    27   14   15 2
    28   14   16 1
    29   16   17 1
    30   16   33 1
    31   16   34 1
    32   17   18 am
    33   17   35 1
    34   18   19 2
    35   18   20 1
    36   20   21 1
    37   20   36 1
    38   20   37 1
    39   21   38 1
    40   21   39 1
    41   21   40 1
@<TRIPOS>MOLECULE
ZINC44531836
   47    48     0     0     0
SMALL
USER_CHARGES

@<TRIPOS>ATOM
      1 C1         -2.9998   -2.6010   -4.2014 C.3       1 <0>        -0.1569
      2 C2         -2.2897   -3.0471   -2.9216 C.3       1 <0>         0.1397
      3 C3         -1.2233   -4.0885   -3.2666 C.3       1 <0>        -0.1737
      4 N1         -1.6547   -1.8896   -2.2867 N.pl3     1 <0>        -1.1110
      5 S1         -1.6049   -1.7747   -0.6355 S.o2      1 <0>         2.6971
      6 O1         -0.9448   -0.5532   -0.3331 O.2       1 <0>        -0.9495
      7 O2         -2.9142   -2.0691   -0.1682 O.2       1 <0>        -0.9567
      8 C4         -0.5600   -3.0690   -0.0544 C.ar      1 <0>        -0.6824
      9 C5         -1.0905   -4.1042    0.6905 C.ar      1 <0>        -0.0143
     10 C6         -0.2712   -5.1200    1.1472 C.ar      1 <0>        -0.1351
     11 C7          1.0816   -5.1036    0.8598 C.ar      1 <0>        -0.0560
     12 C8          1.6184   -4.0720    0.1153 C.ar      1 <0>        -0.1463
     13 C9          0.7971   -3.0525   -0.3497 C.ar      1 <0>         0.2627
     14 N2          1.3359   -2.0103   -1.1076 N.pl3     1 <0>        -0.6833
     15 C10         1.8436   -0.7954   -0.4555 C.3       1 <0>         0.1371
     16 C11         3.2817   -0.5494   -0.9226 C.3       1 <0>        -0.1384
     17 C12         3.3162   -0.5032   -2.4519 C.3       1 <0>        -0.1257
     18 C13         2.8486   -1.8471   -3.0152 C.3       1 <0>        -0.1376
     19 H1          3.4934   -2.6425   -2.6414 H         1 <0>         0.0986
     20 C14         1.4112   -2.1104   -2.5715 C.3       1 <0>         0.1424
     21 C15         2.9155   -1.8114   -4.5434 C.3       1 <0>        -0.0059
     22 N3          4.3151   -1.6776   -4.9692 N.4       1 <0>        -0.6375
     23 H2         -3.4723   -3.4622   -4.6738 H         1 <0>         0.0739
     24 H3         -3.7596   -1.8591   -3.9556 H         1 <0>         0.0675
     25 H4         -2.2734   -2.1639   -4.8865 H         1 <0>         0.0589
     26 H5         -3.0162   -3.4842   -2.2365 H         1 <0>         0.0954
     27 H6         -0.6538   -4.3359   -2.3707 H         1 <0>         0.0594
     28 H7         -1.7045   -4.9877   -3.6511 H         1 <0>         0.0733
     29 H8         -0.5517   -3.6837   -4.0238 H         1 <0>         0.0574
     30 H9         -1.2633   -1.1905   -2.8335 H         1 <0>         0.4132
     31 H10        -2.1464   -4.1199    0.9167 H         1 <0>         0.1464
     32 H11        -0.6884   -5.9278    1.7300 H         1 <0>         0.1374
     33 H12         1.7188   -5.8984    1.2184 H         1 <0>         0.1336
     34 H13         2.6749   -4.0597   -0.1085 H         1 <0>         0.1275
     35 H14         1.2195    0.0549   -0.7305 H         1 <0>         0.0846
     36 H15         1.8283   -0.9278    0.6263 H         1 <0>         0.0785
     37 H16         3.6370    0.3999   -0.5218 H         1 <0>         0.0828
     38 H17         3.9224   -1.3570   -0.5684 H         1 <0>         0.0675
     39 H18         2.6562    0.2885   -2.8063 H         1 <0>         0.0822
     40 H19         4.3343   -0.3038   -2.7862 H         1 <0>         0.0571
     41 H20         1.1108   -3.1101   -2.8853 H         1 <0>         0.0878
     42 H21         0.7511   -1.3697   -3.0229 H         1 <0>         0.0660
     43 H22         2.4996   -2.7345   -4.9470 H         1 <0>         0.1363
     44 H23         2.3407   -0.9620   -4.9124 H         1 <0>         0.1374
     45 H24         4.3592   -1.6540   -5.9770 H         1 <0>         0.4393
     46 H25         4.7001   -0.8231   -4.5956 H         1 <0>         0.4341
     47 H26         4.8472   -2.4639   -4.6276 H         1 <0>         0.4353
@<TRIPOS>BOND
     1    1    2 1
     2    1   23 1
     3    1   24 1
     4    1   25 1
     5    2    3 1
     6    2    4 1
     7    2   26 1
     8    3   27 1
     9    3   28 1
    10    3   29 1
    11    4    5 1
    12    4   30 1
    13    5    6 2
    14    5    7 2
    15    5    8 1
    16    8   13 ar
    17    8    9 ar
    18    9   10 ar
    19    9   31 1
    20   10   11 ar
    21   10   32 1
    22   11   12 ar
    23   11   33 1
    24   12   13 ar
    25   12   34 1
    26   13   14 1
    27   14   20 1
    28   14   15 1
    29   15   16 1
    30   15   35 1
    31   15   36 1
    32   16   17 1
    33   16   37 1
    34   16   38 1
    35   17   18 1
    36   17   39 1
    37   17   40 1
    38   18   19 1
    39   18   20 1
    40   18   21 1
    41   20   41 1
    42   20   42 1
    43   21   22 1
    44   21   43 1
    45   21   44 1
    46   22   45 1
    47   22   46 1
    48   22   47 1
@<TRIPOS>MOLECULE
ZINC50649154
   40    41     0     0     0
SMALL
USER_CHARGES

@<TRIPOS>ATOM
      1 C1         -0.0417    1.5152   -0.2441 C.3       1 <0>        -0.1917
      2 C2          0.0359   -0.0075   -0.3710 C.3       1 <0>        -0.0135
      3 N1          0.6256   -0.5712    0.8507 N.4       1 <0>        -0.3946
      4 C3         -0.2829   -0.3402    1.9940 C.3       1 <0>        -0.0184
      5 C4         -1.1050   -1.6474    2.1164 C.3       1 <0>        -0.1390
      6 C5         -0.0409   -2.7208    1.7666 C.3       1 <0>        -0.1358
      7 C6          0.8132   -2.0244    0.6863 C.3       1 <0>         0.0184
      8 H1          0.4798   -2.3315   -0.3049 H         1 <0>         0.1492
      9 C7          2.2881   -2.3836    0.8773 C.3       1 <0>         0.0937
     10 N2          3.1075   -1.5868   -0.0392 N.pl3     1 <0>        -1.1434
     11 S1          4.7420   -1.4707    0.1995 S.o2      1 <0>         2.6981
     12 O1          5.2510   -0.6694   -0.8580 O.2       1 <0>        -0.9332
     13 O2          4.9299   -1.1355    1.5676 O.2       1 <0>        -0.9375
     14 C8          5.4166   -3.0834   -0.0211 C.ar      1 <0>        -0.8018
     15 C9          6.0221   -3.7405    1.0351 C.ar      1 <0>         0.0946
     16 C10         6.5403   -5.0105    0.8160 C.ar      1 <0>        -0.2245
     17 C11         6.4367   -5.5757   -0.4403 C.ar      1 <0>         0.2506
     18 N3          5.8539   -4.9246   -1.4290 N.ar      1 <0>        -0.5339
     19 C12         5.3425   -3.7153   -1.2579 C.ar      1 <0>         0.5040
     20 N4          4.7311   -3.0685   -2.3263 N.pl3     1 <0>        -0.8328
     21 Br1         7.3795   -5.9556    2.2226 Br        1 <0>        -0.0098
     22 H2          0.9607    1.9198   -0.1044 H         1 <0>         0.0820
     23 H3         -0.4793    1.9335   -1.1506 H         1 <0>         0.1092
     24 H4         -0.6620    1.7773    0.6130 H         1 <0>         0.0829
     25 H5         -0.9665   -0.4121   -0.5107 H         1 <0>         0.1332
     26 H6          0.6562   -0.2696   -1.2281 H         1 <0>         0.1263
     27 H7          0.2900   -0.1656    2.9047 H         1 <0>         0.1366
     28 H8         -0.9412    0.5044    1.7910 H         1 <0>         0.1397
     29 H9         -1.4757   -1.7818    3.1326 H         1 <0>         0.1214
     30 H10        -1.9248   -1.6618    1.3983 H         1 <0>         0.0990
     31 H11         0.5646   -2.9623    2.6402 H         1 <0>         0.1075
     32 H12        -0.5146   -3.6166    1.3651 H         1 <0>         0.1187
     33 H13         2.5833   -2.1729    1.9052 H         1 <0>         0.1140
     34 H14         2.4341   -3.4432    0.6674 H         1 <0>         0.1161
     35 H15         2.6925   -1.1273   -0.7859 H         1 <0>         0.4169
     36 H16         6.0907   -3.2763    2.0079 H         1 <0>         0.1656
     37 H17         6.8381   -6.5629   -0.6155 H         1 <0>         0.1815
     38 H18         4.2798   -2.2213   -2.1864 H         1 <0>         0.4036
     39 H19         4.7558   -3.4645   -3.2114 H         1 <0>         0.4229
     40 H20         1.5157   -0.1323    1.0328 H         1 <0>         0.4240
@<TRIPOS>BOND
     1    1    2 1
     2    1   22 1
     3    1   23 1
     4    1   24 1
     5    2    3 1
     6    2   25 1
     7    2   26 1
     8    3    7 1
     9    3    4 1
    10    3   40 1
    11    4    5 1
    12    4   27 1
    13    4   28 1
    14    5    6 1
    15    5   29 1
    16    5   30 1
    17    6    7 1
    18    6   31 1
    19    6   32 1
    20    7    8 1
    21    7    9 1
    22    9   10 1
    23    9   33 1
    24    9   34 1
    25   10   11 1
    26   10   35 1
    27   11   12 2
    28   11   13 2
    29   11   14 1
    30   14   19 ar
    31   14   15 ar
    32   15   16 ar
    33   15   36 1
    34   16   17 ar
    35   16   21 1
    36   17   18 ar
    37   17   37 1
    38   18   19 ar
    39   19   20 1
    40   20   38 1
    41   20   39 1
@<TRIPOS>MOLECULE
ZINC38971466
   47    50     0     0     0
SMALL
USER_CHARGES

@<TRIPOS>ATOM
      1 C1         -0.0187    1.5258    0.0104 C.3       1 <0>        -0.1526
      2 C2          0.0021   -0.0041    0.0020 C.3       1 <0>         0.0474
      3 N1          0.6897   -0.4778   -1.2066 N.3       1 <0>        -0.5270
      4 C3         -0.0882   -0.1590   -2.4155 C.3       1 <0>         0.0404
      5 C4          0.8100   -0.3731   -3.6337 C.3       1 <0>        -0.0861
      6 C5          1.4736   -1.7236   -3.5596 C.2       1 <0>        -0.0164
      7 C6          1.5334   -2.4213   -2.4264 C.2       1 <0>        -0.0748
      8 C7          0.9389   -1.9210   -1.1378 C.3       1 <0>         0.0822
      9 C8          2.2227   -3.7684   -2.4270 C.3       1 <0>         0.2219
     10 H1          3.0183   -3.7254   -1.6833 H         1 <0>         0.1804
     11 N2          2.8089   -4.2943   -3.6614 N.2       1 <0>        -0.1732
     12 C9          2.7417   -3.6098   -4.7557 C.2       1 <0>         0.2193
     13 C10         2.0718   -2.2841   -4.7753 C.2       1 <0>        -0.1014
     14 C11         2.1879   -1.8536   -6.0781 C.2       1 <0>         0.3018
     15 N3          2.8495   -2.8030   -6.7708 N.pl3     1 <0>        -0.2153
     16 N4          3.1743   -3.8099   -6.0423 N.2       1 <0>        -0.0864
     17 N5          1.7078   -0.6522   -6.5892 N.pl3     1 <0>        -0.8205
     18 N6          1.2466   -4.7583   -1.9522 N.3       1 <0>        -0.6384
     19 C12         1.8524   -5.6646   -0.9675 C.3       1 <0>         0.0911
     20 C13         0.8234   -6.6635   -0.5045 C.ar      1 <0>        -0.1039
     21 C14         0.0241   -6.3772    0.5864 C.ar      1 <0>        -0.1106
     22 C15        -0.9197   -7.2935    1.0112 C.ar      1 <0>        -0.1187
     23 C16        -1.0646   -8.4959    0.3447 C.ar      1 <0>        -0.1056
     24 C17        -0.2659   -8.7818   -0.7467 C.ar      1 <0>        -0.1190
     25 C18         0.6750   -7.8637   -1.1741 C.ar      1 <0>        -0.0913
     26 H2          1.0039    1.9031    0.0027 H         1 <0>         0.0671
     27 H3         -0.5459    1.8868   -0.8726 H         1 <0>         0.0571
     28 H4         -0.5289    1.8773    0.9072 H         1 <0>         0.0688
     29 H5          0.5293   -0.3651    0.8851 H         1 <0>         0.0839
     30 H6         -1.0205   -0.3814    0.0098 H         1 <0>         0.0448
     31 H7         -0.9555   -0.8162   -2.4784 H         1 <0>         0.0520
     32 H8         -0.4157    0.8800   -2.3784 H         1 <0>         0.1034
     33 H9          0.2083   -0.3156   -4.5407 H         1 <0>         0.0882
     34 H10         1.5741    0.4038   -3.6601 H         1 <0>         0.1056
     35 H11         1.6293   -2.1273   -0.3200 H         1 <0>         0.1099
     36 H12        -0.0019   -2.4391   -0.9516 H         1 <0>         0.0748
     37 H13         1.2417   -0.0301   -6.0090 H         1 <0>         0.4344
     38 H14         1.8391   -0.4366   -7.5258 H         1 <0>         0.4228
     39 H15         0.4286   -4.3060   -1.5722 H         1 <0>         0.3724
     40 H16         2.6898   -6.1912   -1.4253 H         1 <0>         0.1007
     41 H17         2.2088   -5.0879   -0.1140 H         1 <0>         0.0615
     42 H18         0.1373   -5.4378    1.1071 H         1 <0>         0.1203
     43 H19        -1.5437   -7.0702    1.8639 H         1 <0>         0.1266
     44 H20        -1.8015   -9.2121    0.6770 H         1 <0>         0.1269
     45 H21        -0.3789   -9.7214   -1.2672 H         1 <0>         0.1271
     46 H22         1.2964   -8.0855   -2.0291 H         1 <0>         0.1247
     47 H23         3.0566   -2.7335   -7.7159 H         1 <0>         0.4835
@<TRIPOS>BOND
     1    1    2 1
     2    1   26 1
     3    1   27 1
     4    1   28 1
     5    2    3 1
     6    2   29 1
     7    2   30 1
     8    3    8 1
     9    3    4 1
    10    4    5 1
    11    4   31 1
    12    4   32 1
    13    5    6 1
    14    5   33 1
    15    5   34 1
    16    6   13 1
    17    6    7 2
    18    7    8 1
    19    7    9 1
    20    8   35 1
    21    8   36 1
    22    9   10 1
    23    9   11 1
    24    9   18 1
    25   11   12 2
    26   12   16 1
    27   12   13 1
    28   13   14 2
    29   14   15 1
    30   14   17 1
    31   15   16 2
    32   15   47 1
    33   17   37 1
    34   17   38 1
    35   18   19 1
    36   18   39 1
    37   19   20 1
    38   19   40 1
    39   19   41 1
    40   20   25 ar
    41   20   21 ar
    42   21   22 ar
    43   21   42 1
    44   22   23 ar
    45   22   43 1
    46   23   24 ar
    47   23   44 1
    48   24   25 ar
    49   24   45 1
    50   25   46 1
@<TRIPOS>MOLECULE
ZINC13582078
   39    41     0     0     0
SMALL
USER_CHARGES
N-(2,5-dimethylphenyl)-2,3-dioxo-1,4-dihydroquinoxaline-6-sulfonamide
@<TRIPOS>ATOM
      1 C1          5.9713    3.6688    2.2528 C.3       1 <0>        -0.1195
      2 C2          4.5579    3.6448    2.7753 C.ar      1 <0>        -0.0593
      3 C3          4.3111    3.2680    4.0829 C.ar      1 <0>        -0.1285
      4 C4          3.0160    3.2446    4.5663 C.ar      1 <0>        -0.0929
      5 C5          1.9643    3.6029    3.7456 C.ar      1 <0>        -0.1069
      6 C6          2.2081    3.9772    2.4305 C.ar      1 <0>         0.1536
      7 C7          3.5108    3.9996    1.9480 C.ar      1 <0>        -0.1731
      8 N1          1.1466    4.3359    1.5965 N.pl3     1 <0>        -1.0511
      9 S1          1.1912    3.9497   -0.0132 S.o2      1 <0>         2.6944
     10 O1          2.4186    4.4570   -0.5187 O.2       1 <0>        -0.9397
     11 O2         -0.0682    4.3227   -0.5554 O.2       1 <0>        -0.9449
     12 C8          1.2877    2.1939   -0.1253 C.ar      1 <0>        -0.6679
     13 C9          2.5244    1.5713   -0.1524 C.ar      1 <0>         0.0009
     14 C10         2.6087    0.1970   -0.2399 C.ar      1 <0>        -0.1372
     15 C11         1.4497   -0.5690   -0.3019 C.ar      1 <0>         0.1803
     16 C12         0.2031    0.0587   -0.2751 C.ar      1 <0>         0.0972
     17 C13         0.1308    1.4446   -0.1866 C.ar      1 <0>        -0.0125
     18 N2         -0.9685   -0.6906   -0.3365 N.am      1 <0>        -0.6335
     19 H1         -1.8298   -0.2450   -0.3173 H         1 <0>         0.4268
     20 C14        -0.9076   -2.0349   -0.4224 C.2       1 <0>         0.5093
     21 O3         -1.9271   -2.6930   -0.4767 O.2       1 <0>        -0.4584
     22 C15         0.4243   -2.7056   -0.4506 C.2       1 <0>         0.5103
     23 O4          0.5006   -3.9153   -0.5280 O.2       1 <0>        -0.4532
     24 N3          1.5430   -1.9551   -0.3896 N.am      1 <0>        -0.6360
     25 H2          2.4140   -2.3817   -0.4069 H         1 <0>         0.4274
     26 C16         0.5535    3.5830    4.2750 C.3       1 <0>        -0.1143
     27 H3          6.4064    4.6529    2.4270 H         1 <0>         0.0751
     28 H4          6.5627    2.9134    2.7701 H         1 <0>         0.0692
     29 H5          5.9670    3.4575    1.1835 H         1 <0>         0.0709
     30 H6          5.1320    2.9910    4.7278 H         1 <0>         0.1256
     31 H7          2.8267    2.9498    5.5879 H         1 <0>         0.1276
     32 H8          3.7042    4.2945    0.9272 H         1 <0>         0.1616
     33 H9          0.3833    4.8112    1.9603 H         1 <0>         0.4278
     34 H10         3.4261    2.1636   -0.1037 H         1 <0>         0.1537
     35 H11         3.5754   -0.2843   -0.2600 H         1 <0>         0.1525
     36 H12        -0.8313    1.9349   -0.1704 H         1 <0>         0.1573
     37 H13         0.1158    2.5992    4.1059 H         1 <0>         0.0725
     38 H14         0.5635    3.7975    5.3437 H         1 <0>         0.0715
     39 H15        -0.0391    4.3381    3.7585 H         1 <0>         0.0634
@<TRIPOS>BOND
     1    1    2 1
     2    1   27 1
     3    1   28 1
     4    1   29 1
     5    2    7 ar
     6    2    3 ar
     7    3    4 ar
     8    3   30 1
     9    4    5 ar
    10    4   31 1
    11    5    6 ar
    12    5   26 1
    13    6    7 ar
    14    6    8 1
    15    7   32 1
    16    8    9 1
    17    8   33 1
    18    9   10 2
    19    9   11 2
    20    9   12 1
    21   12   17 ar
    22   12   13 ar
    23   13   14 ar
    24   13   34 1
    25   14   15 ar
    26   14   35 1
    27   15   24 1
    28   15   16 ar
    29   16   17 ar
    30   16   18 1
    31   17   36 1
    32   18   19 1
    33   18   20 am
    34   20   21 2
    35   20   22 1
    36   22   23 2
    37   22   24 am
    38   24   25 1
    39   26   37 1
    40   26   38 1
    41   26   39 1
@<TRIPOS>MOLECULE
ZINC37285529
   30    31     0     0     0
SMALL
USER_CHARGES

@<TRIPOS>ATOM
      1 C1          0.0243    1.4635    0.0083 C.3       1 <0>         0.0835
      2 N1          0.0454   -0.0013    0.0007 N.pl3     1 <0>        -0.3601
      3 C2          0.0444   -0.8179   -1.0793 C.2       1 <0>         0.1963
      4 N2          0.0676   -2.0539   -0.6295 N.2       1 <0>        -0.3381
      5 N3          0.0831   -2.0650    0.6546 N.2       1 <0>        -0.0294
      6 N4          0.0773   -0.8603    1.1132 N.2       1 <0>        -0.0763
      7 S1          0.0165   -0.3191   -2.7689 S.3       1 <0>         0.1167
      8 C3          0.0284   -1.8828   -3.6884 C.3       1 <0>        -0.1544
      9 C4          0.0061   -1.5959   -5.1677 C.2       1 <0>         0.5398
     10 O1         -0.0156   -0.4493   -5.5628 O.2       1 <0>        -0.5051
     11 N5          0.0104   -2.6133   -6.0516 N.am      1 <0>        -0.6579
     12 C5         -0.1054   -2.3503   -7.4236 C.ar      1 <0>         0.1078
     13 C6          0.4681   -1.2061   -7.9619 C.ar      1 <0>        -0.0606
     14 C7          0.3542   -0.9468   -9.3132 C.ar      1 <0>        -0.1648
     15 C8         -0.3341   -1.8304  -10.1347 C.ar      1 <0>         0.2157
     16 C9         -0.9078   -2.9749   -9.5969 C.ar      1 <0>        -0.1555
     17 C10        -0.7890   -3.2373   -8.2456 C.ar      1 <0>        -0.0639
     18 Br1        -1.5635   -4.7995   -7.5139 Br        1 <0>        -0.0411
     19 N6         -0.4497   -1.5672  -11.5037 N.pl3     1 <0>        -0.8733
     20 H1          1.0465    1.8417   -0.0074 H         1 <0>         0.0980
     21 H2         -0.5098    1.8237   -0.8710 H         1 <0>         0.1037
     22 H3         -0.4794    1.8150    0.9087 H         1 <0>         0.1090
     23 H4          0.9298   -2.4432   -3.4405 H         1 <0>         0.1361
     24 H5         -0.8499   -2.4695   -3.4188 H         1 <0>         0.1366
     25 H6          0.0936   -3.5276   -5.7383 H         1 <0>         0.4155
     26 H7          1.0030   -0.5187   -7.3235 H         1 <0>         0.1498
     27 H8          0.8001   -0.0565   -9.7315 H         1 <0>         0.1327
     28 H9         -1.4433   -3.6619  -10.2354 H         1 <0>         0.1360
     29 H10        -0.0492   -0.7676  -11.8794 H         1 <0>         0.4022
     30 H11        -0.9303   -2.1843  -12.0774 H         1 <0>         0.4011
@<TRIPOS>BOND
     1    1    2 1
     2    1   20 1
     3    1   21 1
     4    1   22 1
     5    2    6 1
     6    2    3 1
     7    3    4 2
     8    3    7 1
     9    4    5 1
    10    5    6 2
    11    7    8 1
    12    8    9 1
    13    8   23 1
    14    8   24 1
    15    9   10 2
    16    9   11 am
    17   11   12 1
    18   11   25 1
    19   12   17 ar
    20   12   13 ar
    21   13   14 ar
    22   13   26 1
    23   14   15 ar
    24   14   27 1
    25   15   16 ar
    26   15   19 1
    27   16   17 ar
    28   16   28 1
    29   17   18 1
    30   19   29 1
    31   19   30 1
@<TRIPOS>MOLECULE
ZINC46973490
   40    41     0     0     0
SMALL
USER_CHARGES

@<TRIPOS>ATOM
      1 C1         -0.4902    0.3637   -0.3480 C.3       1 <0>        -0.1627
      2 C2         -0.1931   -1.1360   -0.2881 C.3       1 <0>         0.1494
      3 H1         -1.1301   -1.6927   -0.3000 H         1 <0>         0.1020
      4 C3          0.6537   -1.5368   -1.4977 C.3       1 <0>         0.0708
      5 H2          0.1186   -1.3017   -2.4177 H         1 <0>         0.1006
      6 C4          0.9624   -3.0485   -1.4430 C.3       1 <0>        -0.1555
      7 C5          2.4337   -3.1025   -1.9373 C.3       1 <0>        -0.1571
      8 C6          2.9870   -1.7756   -1.3594 C.3       1 <0>         0.0461
      9 O1          1.9030   -0.8368   -1.4696 O.3       1 <0>        -0.3707
     10 N1          0.5398   -1.4398    0.9435 N.am      1 <0>        -0.7331
     11 C7         -0.1322   -1.6583    2.0911 C.2       1 <0>         0.7150
     12 O2         -1.3467   -1.6034    2.1044 O.2       1 <0>        -0.5634
     13 N2          0.5422   -1.9378    3.2241 N.am      1 <0>        -0.5269
     14 N3          1.9416   -2.0011    3.2088 N.am      1 <0>        -0.5186
     15 C8          2.6160   -2.2806    4.3418 C.2       1 <0>         0.5972
     16 O3          2.0184   -2.3764    5.3977 O.2       1 <0>        -0.5327
     17 C9          4.0699   -2.4694    4.3023 C.2       1 <0>        -0.0406
     18 C10         4.8827   -2.3092    3.2001 C.2       1 <0>        -0.1079
     19 C11         6.1908   -2.5877    3.6099 C.2       1 <0>        -0.1768
     20 C12         6.1547   -2.9063    4.9264 C.2       1 <0>         0.0670
     21 N4          4.8720   -2.8330    5.3601 N.pl3     1 <0>        -0.3969
     22 C13         4.4156   -3.0991    6.7265 C.3       1 <0>         0.0623
     23 Br1         7.7351   -2.5310    2.5199 Br        1 <0>        -0.0192
     24 H3          0.4468    0.9205   -0.3361 H         1 <0>         0.0657
     25 H4         -1.0356    0.5898   -1.2643 H         1 <0>         0.0682
     26 H5         -1.0935    0.6493    0.5137 H         1 <0>         0.0621
     27 H6          0.8818   -3.4242   -0.4230 H         1 <0>         0.0801
     28 H7          0.3069   -3.6028   -2.1147 H         1 <0>         0.0873
     29 H8          2.9574   -3.9620   -1.5188 H         1 <0>         0.0857
     30 H9          2.4823   -3.1072   -3.0262 H         1 <0>         0.0824
     31 H10         3.2701   -1.9068   -0.3150 H         1 <0>         0.0537
     32 H11         3.8418   -1.4357   -1.9440 H         1 <0>         0.0919
     33 H12         1.5088   -1.4836    0.9329 H         1 <0>         0.3903
     34 H13         0.0585   -2.0952    4.0501 H         1 <0>         0.4450
     35 H14         2.4253   -1.8438    2.3829 H         1 <0>         0.4210
     36 H15         4.5686   -2.0228    2.2072 H         1 <0>         0.1522
     37 H16         7.0086   -3.1716    5.5323 H         1 <0>         0.1843
     38 H17         4.0724   -4.1311    6.8004 H         1 <0>         0.0843
     39 H18         5.2392   -2.9394    7.4223 H         1 <0>         0.0921
     40 H19         3.5954   -2.4249    6.9734 H         1 <0>         0.1055
@<TRIPOS>BOND
     1    1    2 1
     2    1   24 1
     3    1   25 1
     4    1   26 1
     5    2    3 1
     6    2    4 1
     7    2   10 1
     8    4    5 1
     9    4    9 1
    10    4    6 1
    11    6    7 1
    12    6   27 1
    13    6   28 1
    14    7    8 1
    15    7   29 1
    16    7   30 1
    17    8    9 1
    18    8   31 1
    19    8   32 1
    20   10   11 am
    21   10   33 1
    22   11   12 2
    23   11   13 am
    24   13   14 1
    25   13   34 1
    26   14   15 am
    27   14   35 1
    28   15   16 2
    29   15   17 1
    30   17   21 1
    31   17   18 2
    32   18   19 1
    33   18   36 1
    34   19   20 2
    35   19   23 1
    36   20   21 1
    37   20   37 1
    38   21   22 1
    39   22   38 1
    40   22   39 1
    41   22   40 1
@<TRIPOS>MOLECULE
ZINC56508036
   48    50     0     0     0
SMALL
USER_CHARGES

@<TRIPOS>ATOM
      1 C1          1.4344    0.7370    0.4830 C.3       1 <0>        -0.0902
      2 C2          0.7094   -0.5781    0.3563 C.2       1 <0>         0.0747
      3 C3          0.1212   -1.0649   -0.7662 C.2       1 <0>        -0.0071
      4 C4         -0.4374   -2.3125   -0.4521 C.2       1 <0>         0.1002
      5 N1         -0.1952   -2.5663    0.8083 N.2       1 <0>        -0.2853
      6 N2          0.5309   -1.4943    1.3428 N.pl3     1 <0>        -0.4725
      7 H1          0.8480   -1.4187    2.2564 H         1 <0>         0.4434
      8 C5         -1.1883   -3.2077   -1.4038 C.3       1 <0>        -0.0602
      9 N3          0.0789   -0.4302   -2.0219 N.am      1 <0>        -0.6503
     10 C6          0.3742   -1.1249   -3.1384 C.2       1 <0>         0.5107
     11 O1          0.5713   -2.3202   -3.0747 O.2       1 <0>        -0.4973
     12 C7          0.4594   -0.4169   -4.4660 C.3       1 <0>         0.0380
     13 N4          0.7922   -1.3869   -5.5178 N.3       1 <0>        -0.5136
     14 C8          1.0950   -0.7058   -6.7866 C.3       1 <0>         0.0552
     15 C9          1.7783   -1.7040   -7.7219 C.3       1 <0>        -0.0743
     16 C10         0.9732   -2.9761   -7.7931 C.ar      1 <0>        -0.1043
     17 C11         0.0136   -3.2788   -6.8523 C.ar      1 <0>        -0.0515
     18 C12        -0.7001   -4.4644   -6.9533 C.ar      1 <0>        -0.1334
     19 C13        -0.4589   -5.3421   -7.9919 C.ar      1 <0>        -0.0983
     20 C14         0.4994   -5.0419   -8.9398 C.ar      1 <0>        -0.1406
     21 C15         1.2170   -3.8588   -8.8423 C.ar      1 <0>         0.1453
     22 N5          2.1889   -3.5514   -9.8009 N.am      1 <0>        -0.6683
     23 C16         2.1628   -4.1564  -11.0050 C.2       1 <0>         0.5089
     24 O2          1.2453   -4.8957  -11.2924 O.2       1 <0>        -0.5222
     25 C17         3.2736   -3.9143  -11.9941 C.3       1 <0>        -0.1711
     26 C18        -0.2957   -2.3517   -5.7062 C.3       1 <0>         0.0883
     27 H2          2.4889    0.5947    0.2467 H         1 <0>         0.0831
     28 H3          1.0011    1.4589   -0.2092 H         1 <0>         0.0831
     29 H4          1.3375    1.1084    1.5031 H         1 <0>         0.0747
     30 H5         -0.5135   -3.9685   -1.7959 H         1 <0>         0.0872
     31 H6         -2.0118   -3.6893   -0.8764 H         1 <0>         0.0656
     32 H7         -1.5829   -2.6127   -2.2274 H         1 <0>         0.0676
     33 H8         -0.1627    0.5072   -2.0836 H         1 <0>         0.4049
     34 H9         -0.4999    0.0489   -4.6916 H         1 <0>         0.0671
     35 H10         1.2335    0.3492   -4.4201 H         1 <0>         0.1096
     36 H11         0.1702   -0.3514   -7.2418 H         1 <0>         0.0434
     37 H12         1.7612    0.1365   -6.6002 H         1 <0>         0.0835
     38 H13         1.8580   -1.2699   -8.7185 H         1 <0>         0.0751
     39 H14         2.7763   -1.9280   -7.3454 H         1 <0>         0.0840
     40 H15        -1.4501   -4.7028   -6.2137 H         1 <0>         0.1223
     41 H16        -1.0189   -6.2628   -8.0624 H         1 <0>         0.1259
     42 H17         0.6896   -5.7257   -9.7538 H         1 <0>         0.1526
     43 H18         2.8813   -2.9029   -9.5989 H         1 <0>         0.4108
     44 H19         4.0017   -3.2279  -11.5620 H         1 <0>         0.0785
     45 H20         3.7616   -4.8597  -12.2311 H         1 <0>         0.1008
     46 H21         2.8610   -3.4801  -12.9048 H         1 <0>         0.0998
     47 H22        -0.4204   -2.9359   -4.7945 H         1 <0>         0.1115
     48 H23        -1.2203   -1.8144   -5.9176 H         1 <0>         0.0446
@<TRIPOS>BOND
     1    1    2 1
     2    1   27 1
     3    1   28 1
     4    1   29 1
     5    2    6 1
     6    2    3 2
     7    3    4 1
     8    3    9 1
     9    4    5 2
    10    4    8 1
    11    5    6 1
    12    6    7 1
    13    8   30 1
    14    8   31 1
    15    8   32 1
    16    9   10 am
    17    9   33 1
    18   10   11 2
    19   10   12 1
    20   12   13 1
    21   12   34 1
    22   12   35 1
    23   13   26 1
    24   13   14 1
    25   14   15 1
    26   14   36 1
    27   14   37 1
    28   15   16 1
    29   15   38 1
    30   15   39 1
    31   16   21 ar
    32   16   17 ar
    33   17   18 ar
    34   17   26 1
    35   18   19 ar
    36   18   40 1
    37   19   20 ar
    38   19   41 1
    39   20   21 ar
    40   20   42 1
    41   21   22 1
    42   22   23 am
    43   22   43 1
    44   23   24 2
    45   23   25 1
    46   25   44 1
    47   25   45 1
    48   25   46 1
    49   26   47 1
    50   26   48 1
@<TRIPOS>MOLECULE
ZINC51131186
   47    49     0     0     0
SMALL
USER_CHARGES

@<TRIPOS>ATOM
      1 C1         -0.0187    1.5258    0.0104 C.3       1 <0>        -0.1485
      2 C2          0.0021   -0.0041    0.0020 C.3       1 <0>        -0.0872
      3 C3          0.7314   -0.5002   -1.2498 C.3       1 <0>        -0.1146
      4 C4          0.5452   -2.0121   -1.3963 C.3       1 <0>        -0.0615
      5 C5          0.9354   -2.6806   -0.0863 C.2       1 <0>        -0.0560
      6 C6          1.0126   -1.9774    1.0649 C.2       1 <0>        -0.2226
      7 S1          1.4934   -3.1653    2.2841 S.3       1 <0>         0.3154
      8 C7          1.5902   -4.5388    1.3229 C.2       1 <0>         0.0548
      9 C8          1.2531   -4.0901    0.0566 C.2       1 <0>        -0.1386
     10 C9          1.2188   -4.9796   -1.0651 C.1       1 <0>         0.2690
     11 N1          1.1917   -5.6853   -1.9550 N.1       1 <0>        -0.4266
     12 N2          1.9305   -5.8280    1.7087 N.am      1 <0>        -0.6221
     13 C10         2.2330   -6.0884    2.9960 C.2       1 <0>         0.5111
     14 O1          2.2077   -5.1963    3.8174 O.2       1 <0>        -0.4745
     15 C11         2.6024   -7.4881    3.4150 C.3       1 <0>         0.0412
     16 N3          2.8853   -7.5092    4.8563 N.3       1 <0>        -0.5169
     17 C12         4.0911   -6.7281    5.1681 C.3       1 <0>         0.0063
     18 C13         4.3145   -6.7272    6.6827 C.3       1 <0>         0.0657
     19 O2          4.4088   -8.0768    7.1464 O.3       1 <0>        -0.3556
     20 C14         3.2511   -8.8662    6.8600 C.3       1 <0>         0.0779
     21 C15         3.0169   -8.8887    5.3472 C.3       1 <0>         0.0293
     22 C16         3.4654  -10.2726    7.3570 C.2       1 <0>         0.5242
     23 O3          4.5388  -10.5950    7.8206 O.2       1 <0>        -0.5149
     24 N4          2.4643  -11.1722    7.2864 N.am      1 <0>        -0.8512
     25 C17         0.7445   -0.5153    1.2455 C.3       1 <0>        -0.0306
     26 H1          1.0039    1.9031    0.0027 H         1 <0>         0.0574
     27 H2         -0.5459    1.8868   -0.8726 H         1 <0>         0.0584
     28 H3         -0.5289    1.8773    0.9072 H         1 <0>         0.0583
     29 H4         -1.0199   -0.3830    0.0055 H         1 <0>         0.0771
     30 H5          0.3252    0.0014   -2.1281 H         1 <0>         0.0719
     31 H6          1.7939   -0.2730   -1.1637 H         1 <0>         0.0685
     32 H7         -0.4982   -2.2318   -1.6224 H         1 <0>         0.0806
     33 H8          1.1817   -2.3828   -2.1998 H         1 <0>         0.0749
     34 H9          1.9507   -6.5415    1.0519 H         1 <0>         0.4208
     35 H10         1.7747   -8.1630    3.1972 H         1 <0>         0.1185
     36 H11         3.4876   -7.8098    2.8663 H         1 <0>         0.0791
     37 H12         4.9529   -7.1759    4.6733 H         1 <0>         0.0464
     38 H13         3.9616   -5.7038    4.8187 H         1 <0>         0.1086
     39 H14         5.2387   -6.1975    6.9140 H         1 <0>         0.1087
     40 H15         3.4773   -6.2313    7.1738 H         1 <0>         0.0680
     41 H16         2.3829   -8.4324    7.3563 H         1 <0>         0.0979
     42 H17         2.1033   -9.4415    5.1286 H         1 <0>         0.0956
     43 H18         3.8615   -9.3711    4.8553 H         1 <0>         0.0560
     44 H19         1.6058  -10.9144    6.9157 H         1 <0>         0.4026
     45 H20         2.6022  -12.0775    7.6064 H         1 <0>         0.4085
     46 H21         1.6874    0.0202    1.3565 H         1 <0>         0.0851
     47 H22         0.1276   -0.3614    2.1309 H         1 <0>         0.0833
@<TRIPOS>BOND
     1    1    2 1
     2    1   26 1
     3    1   27 1
     4    1   28 1
     5    2   25 1
     6    2    3 1
     7    2   29 1
     8    3    4 1
     9    3   30 1
    10    3   31 1
    11    4    5 1
    12    4   32 1
    13    4   33 1
    14    5    9 1
    15    5    6 2
    16    6    7 1
    17    6   25 1
    18    7    8 1
    19    8    9 2
    20    8   12 1
    21    9   10 1
    22   10   11 3
    23   12   13 am
    24   12   34 1
    25   13   14 2
    26   13   15 1
    27   15   16 1
    28   15   35 1
    29   15   36 1
    30   16   21 1
    31   16   17 1
    32   17   18 1
    33   17   37 1
    34   17   38 1
    35   18   19 1
    36   18   39 1
    37   18   40 1
    38   19   20 1
    39   20   21 1
    40   20   22 1
    41   20   41 1
    42   21   42 1
    43   21   43 1
    44   22   23 2
    45   22   24 am
    46   24   44 1
    47   24   45 1
    48   25   46 1
    49   25   47 1
@<TRIPOS>MOLECULE
ZINC22263447
   43    45     0     0     0
SMALL
USER_CHARGES
2-[(4-pyrimidin-2-ylpiperazin-1-yl)methyl]benzamidine
@<TRIPOS>ATOM
      1 C1          7.6506   -4.8118    3.6677 C.ar      1 <0>        -0.0604
      2 C2          7.9173   -4.0423    4.7863 C.ar      1 <0>        -0.1082
      3 C3          7.9932   -2.6688    4.6801 C.ar      1 <0>        -0.0639
      4 C4          7.8010   -2.0563    3.4418 C.ar      1 <0>        -0.1180
      5 C5          7.5330   -2.8372    2.3181 C.ar      1 <0>        -0.0361
      6 C6          7.4544   -4.2098    2.4380 C.ar      1 <0>        -0.1054
      7 C7          7.3236   -2.1832    0.9766 C.3       1 <0>         0.0292
      8 N1          5.9966   -1.5541    0.9404 N.3       1 <0>        -0.5527
      9 C8          5.8859   -0.6229   -0.1911 C.3       1 <0>         0.0257
     10 C9          4.5214    0.0689   -0.1473 C.3       1 <0>         0.0722
     11 N2          3.4590   -0.9452   -0.1978 N.pl3     1 <0>        -0.4601
     12 C10         3.5697   -1.8764    0.9337 C.3       1 <0>         0.0658
     13 C11         4.9342   -2.5683    0.8900 C.3       1 <0>         0.0583
     14 C12         2.2087   -0.3525   -0.2319 C.ar      1 <0>         0.4844
     15 N3          1.1301   -1.1205   -0.2794 N.ar      1 <0>        -0.5284
     16 C13        -0.0794   -0.5860   -0.3130 C.ar      1 <0>         0.1777
     17 C14        -0.2096    0.7938   -0.2980 C.ar      1 <0>        -0.2498
     18 C15         0.9395    1.5673   -0.2480 C.ar      1 <0>         0.1745
     19 N4          2.1190    0.9693   -0.2167 N.ar      1 <0>        -0.5538
     20 C16         7.8806   -0.5825    3.3211 C.cat     1 <0>         0.5866
     21 N5          7.5962   -0.0055    2.1887 N.pl3     1 <0>        -0.7828
     22 N6          8.2557    0.1784    4.4068 N.pl3     1 <0>        -0.8345
     23 H1          7.5918   -5.8866    3.7559 H         1 <0>         0.1460
     24 H2          8.0659   -4.5177    5.7445 H         1 <0>         0.1469
     25 H3          8.2007   -2.0691    5.5540 H         1 <0>         0.1369
     26 H4          7.2428   -4.8154    1.5691 H         1 <0>         0.1447
     27 H5          8.0970   -1.4173    0.8174 H         1 <0>         0.1141
     28 H6          7.3911   -2.9428    0.1838 H         1 <0>         0.0950
     29 H7          6.6832    0.1320   -0.1240 H         1 <0>         0.0895
     30 H8          5.9860   -1.1791   -1.1349 H         1 <0>         0.0749
     31 H9          4.4334    0.6475    0.7841 H         1 <0>         0.0642
     32 H10         4.4253    0.7452   -1.0095 H         1 <0>         0.1054
     33 H11         3.4696   -1.3202    1.8774 H         1 <0>         0.0542
     34 H12         2.7724   -2.6313    0.8667 H         1 <0>         0.1109
     35 H13         5.0234   -3.1468   -0.0413 H         1 <0>         0.0711
     36 H14         5.0314   -3.2443    1.7523 H         1 <0>         0.0987
     37 H15        -0.9549   -1.2172   -0.3521 H         1 <0>         0.1756
     38 H16        -1.1850    1.2564   -0.3291 H         1 <0>         0.1533
     39 H17         0.8727    2.6451   -0.2354 H         1 <0>         0.1726
     40 H18         7.6553    1.0892    2.0991 H         1 <0>         0.4401
     41 H19         8.3148    1.2731    4.3171 H         1 <0>         0.4519
     42 H20         8.4960   -0.3089    5.3633 H         1 <0>         0.4601
     43 H21         7.2968   -0.6129    1.3218 H         1 <0>         0.4735
@<TRIPOS>BOND
     1    1    6 ar
     2    1    2 ar
     3    1   23 1
     4    2    3 ar
     5    2   24 1
     6    3    4 ar
     7    3   25 1
     8    4    5 ar
     9    4   20 1
    10    5    6 ar
    11    5    7 1
    12    6   26 1
    13    7    8 1
    14    7   27 1
    15    7   28 1
    16    8   13 1
    17    8    9 1
    18    9   10 1
    19    9   29 1
    20    9   30 1
    21   10   11 1
    22   10   31 1
    23   10   32 1
    24   11   12 1
    25   11   14 1
    26   12   13 1
    27   12   33 1
    28   12   34 1
    29   13   35 1
    30   13   36 1
    31   14   19 ar
    32   14   15 ar
    33   15   16 ar
    34   16   17 ar
    35   16   37 1
    36   17   18 ar
    37   17   38 1
    38   18   19 ar
    39   18   39 1
    40   20   21 2
    41   20   22 1
    42   21   40 1
    43   21   43 1
    44   22   41 1
    45   22   42 1
@<TRIPOS>MOLECULE
ZINC37629998
   49    51     0     0     0
SMALL
USER_CHARGES

@<TRIPOS>ATOM
      1 C1         -0.0187    1.5258    0.0104 C.3       1 <0>        -0.1453
      2 C2          1.3165    0.7789   -0.0063 C.3       1 <0>        -0.1508
      3 C3          0.0021   -0.0041    0.0020 C.3       1 <0>        -0.2014
      4 C4         -0.4023   -0.6984   -1.2729 C.2       1 <0>         0.5471
      5 O1         -0.7279   -0.0458   -2.2419 O.2       1 <0>        -0.5340
      6 N1         -0.4023   -2.0447   -1.3362 N.am      1 <0>        -0.6141
      7 C5         -0.0164   -2.8490   -0.1688 C.3       1 <0>         0.1100
      8 C6          1.0908   -3.8226   -0.5850 C.3       1 <0>        -0.1423
      9 C7          0.6169   -4.6446   -1.7857 C.3       1 <0>         0.1436
     10 C8          0.3271   -3.7108   -2.9631 C.3       1 <0>        -0.1405
     11 C9         -0.7941   -2.7360   -2.5721 C.3       1 <0>         0.1127
     12 N2          1.6606   -5.5998   -2.1658 N.am      1 <0>        -0.7240
     13 C10         1.3323   -6.7326   -2.8181 C.2       1 <0>         0.5151
     14 O2          0.1728   -6.9612   -3.0904 O.2       1 <0>        -0.5273
     15 C11         2.4059   -7.7151   -3.2091 C.3       1 <0>        -0.1141
     16 C12         3.4095   -7.0306   -4.1393 C.3       1 <0>        -0.1104
     17 C13         4.4995   -8.0282   -4.5362 C.3       1 <0>        -0.1400
     18 C14         3.8638   -9.2176   -5.2586 C.3       1 <0>         0.0231
     19 C15         2.8602   -9.9022   -4.3284 C.3       1 <0>        -0.1418
     20 C16         1.7702   -8.9046   -3.9315 C.3       1 <0>        -0.0996
     21 N3          4.9104  -10.1754   -5.6397 N.4       1 <0>        -0.6368
     22 H1         -0.3072    2.0201    0.9381 H         1 <0>         0.1066
     23 H2         -0.3248    2.0300   -0.9061 H         1 <0>         0.1092
     24 H3          1.8888    0.7918   -0.9339 H         1 <0>         0.0983
     25 H4          1.9064    0.7818    0.9103 H         1 <0>         0.1064
     26 H5         -0.2728   -0.5162    0.9241 H         1 <0>         0.1258
     27 H6          0.3511   -2.1938    0.6210 H         1 <0>         0.0975
     28 H7         -0.8796   -3.4093    0.1905 H         1 <0>         0.0755
     29 H8          1.9847   -3.2618   -0.8581 H         1 <0>         0.0757
     30 H9          1.3193   -4.4903    0.2457 H         1 <0>         0.0852
     31 H10        -0.2910   -5.1859   -1.5197 H         1 <0>         0.0940
     32 H11         1.2282   -3.1510   -3.2137 H         1 <0>         0.0692
     33 H12         0.0121   -4.2989   -3.8250 H         1 <0>         0.0797
     34 H13        -1.7194   -3.2872   -2.4048 H         1 <0>         0.0728
     35 H14        -0.9399   -2.0062   -3.3685 H         1 <0>         0.0985
     36 H15         2.5880   -5.4170   -1.9480 H         1 <0>         0.3999
     37 H16         2.9205   -8.0661   -2.3146 H         1 <0>         0.1051
     38 H17         2.8949   -6.6797   -5.0338 H         1 <0>         0.0832
     39 H18         3.8624   -6.1832   -3.6246 H         1 <0>         0.0897
     40 H19         5.2145   -7.5405   -5.1989 H         1 <0>         0.0938
     41 H20         5.0141   -8.3791   -3.6417 H         1 <0>         0.0914
     42 H21         3.3492   -8.8667   -6.1531 H         1 <0>         0.1438
     43 H22         2.4073  -10.7496   -4.8431 H         1 <0>         0.0940
     44 H23         3.3748  -10.2531   -3.4339 H         1 <0>         0.0895
     45 H24         1.0552   -9.3923   -3.2688 H         1 <0>         0.0943
     46 H25         1.2556   -8.5537   -4.8260 H         1 <0>         0.0846
     47 H26         5.3867  -10.5003   -4.8117 H         1 <0>         0.4332
     48 H27         4.4911  -10.9599   -6.1161 H         1 <0>         0.4375
     49 H28         5.5722   -9.7240   -6.2532 H         1 <0>         0.4366
@<TRIPOS>BOND
     1    1    3 1
     2    1    2 1
     3    1   22 1
     4    1   23 1
     5    2    3 1
     6    2   24 1
     7    2   25 1
     8    3    4 1
     9    3   26 1
    10    4    5 2
    11    4    6 am
    12    6   11 1
    13    6    7 1
    14    7    8 1
    15    7   27 1
    16    7   28 1
    17    8    9 1
    18    8   29 1
    19    8   30 1
    20    9   10 1
    21    9   12 1
    22    9   31 1
    23   10   11 1
    24   10   32 1
    25   10   33 1
    26   11   34 1
    27   11   35 1
    28   12   13 am
    29   12   36 1
    30   13   14 2
    31   13   15 1
    32   15   20 1
    33   15   16 1
    34   15   37 1
    35   16   17 1
    36   16   38 1
    37   16   39 1
    38   17   18 1
    39   17   40 1
    40   17   41 1
    41   18   19 1
    42   18   21 1
    43   18   42 1
    44   19   20 1
    45   19   43 1
    46   19   44 1
    47   20   45 1
    48   20   46 1
    49   21   47 1
    50   21   48 1
    51   21   49 1
@<TRIPOS>MOLECULE
ZINC43411144
   40    40     0     0     0
SMALL
USER_CHARGES

@<TRIPOS>ATOM
      1 C1         -0.0187    1.5258    0.0104 C.3       1 <0>        -0.1783
      2 C2          0.0021   -0.0041    0.0020 C.3       1 <0>         0.0507
      3 C3          0.7421   -0.5109    1.2415 C.3       1 <0>        -0.1802
      4 C4         -1.4333   -0.5336    0.0129 C.3       1 <0>         0.0958
      5 N1         -1.4134   -1.9985    0.0048 N.pl3     1 <0>        -1.1311
      6 S1         -2.7837   -2.8473    0.3846 S.o2      1 <0>         2.7000
      7 O1         -2.4553   -4.2244    0.2627 O.2       1 <0>        -0.9279
      8 O2         -3.2870   -2.2879    1.5900 O.2       1 <0>        -0.9268
      9 C5         -3.9747   -2.5009   -0.8670 C.ar      1 <0>        -0.8288
     10 C6         -4.8388   -1.4287   -0.7213 C.ar      1 <0>         0.2676
     11 C7         -5.7749   -1.1552   -1.7025 C.ar      1 <0>        -0.2609
     12 C8         -5.8473   -1.9567   -2.8344 C.ar      1 <0>         0.3295
     13 C9         -4.9793   -3.0312   -2.9787 C.ar      1 <0>        -0.2617
     14 C10        -4.0413   -3.2979   -1.9975 C.ar      1 <0>         0.2721
     15 F1         -3.1931   -4.3397   -2.1398 F         1 <0>        -0.1029
     16 N2         -6.7919   -1.6827   -3.8260 N.pl3     1 <0>        -0.8425
     17 F2         -4.7680   -0.6495    0.3800 F         1 <0>        -0.1038
     18 N3          0.6897   -0.4778   -1.2066 N.4       1 <0>        -0.3839
     19 C11        -0.0208    0.0088   -2.3967 C.3       1 <0>        -0.0618
     20 C12         2.0678    0.0307   -1.2170 C.3       1 <0>        -0.0570
     21 H1          1.0039    1.9031    0.0027 H         1 <0>         0.0915
     22 H2         -0.5459    1.8868   -0.8726 H         1 <0>         0.0865
     23 H3         -0.5289    1.8773    0.9072 H         1 <0>         0.1116
     24 H4          0.2319   -0.1594    2.1383 H         1 <0>         0.1125
     25 H5          0.7568   -1.6008    1.2356 H         1 <0>         0.0837
     26 H6          1.7647   -0.1336    1.2338 H         1 <0>         0.0891
     27 H7         -1.9435   -0.1821    0.9097 H         1 <0>         0.1305
     28 H8         -1.9605   -0.1726   -0.8702 H         1 <0>         0.0925
     29 H9         -0.5976   -2.4712   -0.2229 H         1 <0>         0.4119
     30 H10        -6.4492   -0.3193   -1.5881 H         1 <0>         0.1542
     31 H11        -5.0341   -3.6559   -3.8580 H         1 <0>         0.1540
     32 H12        -7.3980   -0.9322   -3.7244 H         1 <0>         0.4139
     33 H13        -6.8419   -2.2429   -4.6164 H         1 <0>         0.4140
     34 H14        -1.0434   -0.3685   -2.3890 H         1 <0>         0.1238
     35 H15        -0.0356    1.0987   -2.3907 H         1 <0>         0.1293
     36 H16         0.4894   -0.3427   -3.2935 H         1 <0>         0.1289
     37 H17         2.5950   -0.3304   -0.3340 H         1 <0>         0.1278
     38 H18         2.5780   -0.3209   -2.1138 H         1 <0>         0.1273
     39 H19         2.0530    1.1205   -1.2110 H         1 <0>         0.1276
     40 H20         0.7033   -1.4867   -1.2121 H         1 <0>         0.4210
@<TRIPOS>BOND
     1    1    2 1
     2    1   21 1
     3    1   22 1
     4    1   23 1
     5    2    3 1
     6    2    4 1
     7    2   18 1
     8    3   24 1
     9    3   25 1
    10    3   26 1
    11    4    5 1
    12    4   27 1
    13    4   28 1
    14    5    6 1
    15    5   29 1
    16    6    7 2
    17    6    8 2
    18    6    9 1
    19    9   14 ar
    20    9   10 ar
    21   10   11 ar
    22   10   17 1
    23   11   12 ar
    24   11   30 1
    25   12   13 ar
    26   12   16 1
    27   13   14 ar
    28   13   31 1
    29   14   15 1
    30   16   32 1
    31   16   33 1
    32   18   19 1
    33   18   20 1
    34   18   40 1
    35   19   34 1
    36   19   35 1
    37   19   36 1
    38   20   37 1
    39   20   38 1
    40   20   39 1
@<TRIPOS>MOLECULE
ZINC50351601
   48    49     0     0     0
SMALL
USER_CHARGES

@<TRIPOS>ATOM
      1 C1          0.6764    1.9814   -0.2422 C.3       1 <0>        -0.1340
      2 C2          2.1966    2.2112   -0.1202 C.3       1 <0>        -0.1459
      3 C3          2.5873    2.0660    1.3257 C.3       1 <0>        -0.1185
      4 C4          3.0645    0.6415    1.6672 C.3       1 <0>        -0.1310
      5 C5          2.2007   -0.4516    1.0094 C.3       1 <0>         0.0667
      6 C6          0.7304   -0.1370    1.0684 C.3       1 <0>        -0.1408
      7 C7          0.3270    0.5686   -0.2426 C.3       1 <0>        -0.1391
      8 C8          2.6173   -0.5969   -0.4556 C.3       1 <0>         0.0518
      9 N1          2.0032   -1.8009   -1.0208 N.pl3     1 <0>        -1.1339
     10 S1          1.9670   -2.0195   -2.6620 S.o2      1 <0>         2.6156
     11 O1          1.3292   -3.2758   -2.8464 O.2       1 <0>        -0.9234
     12 O2          1.3837   -0.8289   -3.1735 O.2       1 <0>        -0.9257
     13 C9          3.7090   -2.1244   -3.1569 C.3       1 <0>        -0.6225
     14 C10         3.7898   -2.4117   -4.6533 C.3       1 <0>        -0.1019
     15 C11         5.2302   -2.2381   -5.1417 C.3       1 <0>        -0.5985
     16 S2          6.2846   -3.4627   -4.3103 S.o2      1 <0>         2.4149
     17 O3          5.8236   -4.7626   -4.6523 O.2       1 <0>        -0.9227
     18 O4          7.6441   -3.1246   -4.5486 O.2       1 <0>        -0.9271
     19 C12         5.9087   -3.1585   -2.5584 C.3       1 <0>        -0.6064
     20 C13         4.3928   -3.2297   -2.3576 C.3       1 <0>        -0.0936
     21 N2          2.4419   -1.7266    1.6981 N.4       1 <0>        -0.6386
     22 H1          0.1774    2.4681    0.5958 H         1 <0>         0.0719
     23 H2          0.3246    2.4323   -1.1702 H         1 <0>         0.0789
     24 H3          2.7280    1.4715   -0.7191 H         1 <0>         0.0759
     25 H4          2.4444    3.2142   -0.4675 H         1 <0>         0.0840
     26 H5          3.3904    2.7693    1.5464 H         1 <0>         0.0860
     27 H6          1.7271    2.3089    1.9496 H         1 <0>         0.0789
     28 H7          4.0946    0.5256    1.3304 H         1 <0>         0.0938
     29 H8          3.0337    0.5103    2.7488 H         1 <0>         0.0931
     30 H9          0.1623   -1.0609    1.1767 H         1 <0>         0.0883
     31 H10         0.5303    0.5204    1.9145 H         1 <0>         0.1051
     32 H11        -0.7500    0.4713   -0.3789 H         1 <0>         0.0847
     33 H12         0.8320    0.0803   -1.0761 H         1 <0>         0.0911
     34 H13         2.2860    0.2773   -1.0160 H         1 <0>         0.1628
     35 H14         3.7024   -0.6788   -0.5183 H         1 <0>         0.0981
     36 H15         1.6179   -2.4701   -0.4338 H         1 <0>         0.4101
     37 H16         4.1995   -1.1738   -2.9475 H         1 <0>         0.1534
     38 H17         3.4640   -3.4343   -4.8435 H         1 <0>         0.1095
     39 H18         3.1399   -1.7207   -5.1901 H         1 <0>         0.1064
     40 H19         5.2713   -2.3930   -6.2199 H         1 <0>         0.1512
     41 H20         5.5785   -1.2335   -4.9018 H         1 <0>         0.1403
     42 H21         6.3944   -3.9165   -1.9439 H         1 <0>         0.1464
     43 H22         6.2687   -2.1698   -2.2741 H         1 <0>         0.1376
     44 H23         4.1618   -3.1069   -1.2994 H         1 <0>         0.0908
     45 H24         4.0281   -4.1995   -2.6959 H         1 <0>         0.1106
     46 H25         2.1934   -1.6351    2.6717 H         1 <0>         0.4409
     47 H26         1.8800   -2.4495    1.2740 H         1 <0>         0.4292
     48 H27         3.4179   -1.9708    1.6215 H         1 <0>         0.4353
@<TRIPOS>BOND
     1    1    7 1
     2    1    2 1
     3    1   22 1
     4    1   23 1
     5    2    3 1
     6    2   24 1
     7    2   25 1
     8    3    4 1
     9    3   26 1
    10    3   27 1
    11    4    5 1
    12    4   28 1
    13    4   29 1
    14    5    6 1
    15    5    8 1
    16    5   21 1
    17    6    7 1
    18    6   30 1
    19    6   31 1
    20    7   32 1
    21    7   33 1
    22    8    9 1
    23    8   34 1
    24    8   35 1
    25    9   10 1
    26    9   36 1
    27   10   11 2
    28   10   12 2
    29   10   13 1
    30   13   20 1
    31   13   14 1
    32   13   37 1
    33   14   15 1
    34   14   38 1
    35   14   39 1
    36   15   16 1
    37   15   40 1
    38   15   41 1
    39   16   17 2
    40   16   18 2
    41   16   19 1
    42   19   20 1
    43   19   42 1
    44   19   43 1
    45   20   44 1
    46   20   45 1
    47   21   46 1
    48   21   47 1
    49   21   48 1
@<TRIPOS>MOLECULE
ZINC63085004
   40    40     0     0     0
SMALL
USER_CHARGES

@<TRIPOS>ATOM
      1 C1          1.4131   -0.6728   -0.8104 C.3       1 <0>        -0.1852
      2 C2          0.2424    0.1547   -0.2760 C.3       1 <0>         0.0231
      3 H1          0.3220    0.2391    0.8078 H         1 <0>         0.1531
      4 C3          0.2778    1.5510   -0.9004 C.3       1 <0>        -0.0408
      5 C4         -0.8001    2.3727   -0.3262 C.1       1 <0>         0.1498
      6 N1         -1.6320    3.0069    0.1170 N.1       1 <0>        -0.3624
      7 N2         -1.0230   -0.5054   -0.6240 N.4       1 <0>        -0.3765
      8 C5         -1.0972   -0.6851   -2.0801 C.3       1 <0>        -0.0673
      9 C6         -1.0889   -1.8165    0.0352 C.3       1 <0>         0.0057
     10 H2         -0.3102   -2.4648   -0.3668 H         1 <0>         0.1633
     11 C7         -0.8799   -1.6415    1.5407 C.3       1 <0>        -0.1833
     12 C8         -2.4388   -2.4377   -0.2157 C.2       1 <0>         0.5008
     13 O1         -3.4067   -1.7306   -0.4014 O.2       1 <0>        -0.5020
     14 N3         -2.5706   -3.7789   -0.2338 N.am      1 <0>        -0.6346
     15 C9         -3.8100   -4.3574   -0.5418 C.ar      1 <0>         0.0408
     16 C10        -4.9850   -3.6900   -0.2310 C.ar      1 <0>        -0.0592
     17 C11        -6.2062   -4.2617   -0.5352 C.ar      1 <0>        -0.1485
     18 C12        -6.2608   -5.5004   -1.1498 C.ar      1 <0>         0.0158
     19 C13        -5.0934   -6.1729   -1.4633 C.ar      1 <0>        -0.1731
     20 C14        -3.8641   -5.6029   -1.1667 C.ar      1 <0>         0.2227
     21 N4         -2.6819   -6.2784   -1.4880 N.pl3     1 <0>        -0.8720
     22 Cl1        -7.7983   -6.2124   -1.5277 Cl        1 <0>        -0.0504
     23 H3          2.3520   -0.1830   -0.5522 H         1 <0>         0.1169
     24 H4          1.3878   -1.6676   -0.3656 H         1 <0>         0.0880
     25 H5          1.3335   -0.7573   -1.8942 H         1 <0>         0.0919
     26 H6          1.2406    2.0177   -0.6923 H         1 <0>         0.1601
     27 H7          0.1384    1.4706   -1.9784 H         1 <0>         0.1345
     28 H8         -0.3096   -1.3661   -2.4027 H         1 <0>         0.1324
     29 H9         -2.0689   -1.1015   -2.3457 H         1 <0>         0.1294
     30 H10        -0.9682    0.2788   -2.5722 H         1 <0>         0.1339
     31 H11        -1.5818   -0.8994    1.9211 H         1 <0>         0.0921
     32 H12        -1.0491   -2.5933    2.0441 H         1 <0>         0.1134
     33 H13         0.1402   -1.3070    1.7294 H         1 <0>         0.1030
     34 H14        -1.8079   -4.3439   -0.0337 H         1 <0>         0.4129
     35 H15        -4.9460   -2.7234    0.2493 H         1 <0>         0.1527
     36 H16        -7.1203   -3.7403   -0.2923 H         1 <0>         0.1405
     37 H17        -5.1390   -7.1395   -1.9429 H         1 <0>         0.1433
     38 H18        -1.8231   -5.8805   -1.2762 H         1 <0>         0.3930
     39 H19        -2.7211   -7.1447   -1.9227 H         1 <0>         0.4107
     40 H20        -1.7959    0.0652   -0.3158 H         1 <0>         0.4315
@<TRIPOS>BOND
     1    1    2 1
     2    1   23 1
     3    1   24 1
     4    1   25 1
     5    2    3 1
     6    2    4 1
     7    2    7 1
     8    4    5 1
     9    4   26 1
    10    4   27 1
    11    5    6 3
    12    7    8 1
    13    7    9 1
    14    7   40 1
    15    8   28 1
    16    8   29 1
    17    8   30 1
    18    9   10 1
    19    9   11 1
    20    9   12 1
    21   11   31 1
    22   11   32 1
    23   11   33 1
    24   12   13 2
    25   12   14 am
    26   14   15 1
    27   14   34 1
    28   15   20 ar
    29   15   16 ar
    30   16   17 ar
    31   16   35 1
    32   17   18 ar
    33   17   36 1
    34   18   19 ar
    35   18   22 1
    36   19   20 ar
    37   19   37 1
    38   20   21 1
    39   21   38 1
    40   21   39 1
@<TRIPOS>MOLECULE
ZINC00995288
   46    48     0     0     0
SMALL
USER_CHARGES
9-[3-(4-nitrophenyl)prop-2-enoylamino]-8-thiabicyclo[5.3.0]deca-9,11-diene-10-carboxamide
@<TRIPOS>ATOM
      1 C1          2.4901   -0.0105   -0.0276 C.ar      1 <0>        -0.1030
      2 C2          3.6894   -0.6909   -0.0374 C.ar      1 <0>        -0.0534
      3 C3          3.7040   -2.0748   -0.0450 C.ar      1 <0>        -0.0354
      4 C4          2.5171   -2.7867   -0.0374 C.ar      1 <0>        -0.0539
      5 C5          1.3097   -2.1208   -0.0218 C.ar      1 <0>        -0.0915
      6 C6          1.2866   -0.7226   -0.0141 C.ar      1 <0>        -0.0255
      7 C7          0.0021   -0.0041    0.0020 C.2       1 <0>        -0.0160
      8 C8         -0.0162    1.3444    0.0094 C.2       1 <0>        -0.1915
      9 C9         -1.2934    2.0588    0.0194 C.2       1 <0>         0.5432
     10 O1         -2.3391    1.4360    0.0209 O.2       1 <0>        -0.4977
     11 N1         -1.3117    3.4064    0.0268 N.am      1 <0>        -0.6139
     12 C10        -2.5203    4.0825    0.0362 C.2       1 <0>         0.0687
     13 C11        -2.7424    5.4510    0.0503 C.2       1 <0>        -0.2273
     14 C12        -4.1237    5.9134    0.0497 C.2       1 <0>        -0.0626
     15 C13        -5.0521    4.9327    0.0536 C.2       1 <0>        -0.2013
     16 S1         -4.1222    3.4242    0.0408 S.3       1 <0>         0.2301
     17 C14        -6.5411    5.0826    0.0793 C.3       1 <0>        -0.0386
     18 C15        -6.9671    6.0955   -0.9919 C.3       1 <0>        -0.1158
     19 C16        -6.9631    7.4875   -0.3678 C.3       1 <0>        -0.1223
     20 C17        -5.8621    7.5881    0.6859 C.3       1 <0>        -0.1240
     21 C18        -4.4926    7.3916    0.0451 C.3       1 <0>        -0.0579
     22 C19        -1.6252    6.4002    0.0614 C.2       1 <0>         0.5833
     23 O2         -1.1607    6.8056   -0.9880 O.2       1 <0>        -0.5323
     24 N2         -1.1126    6.8239    1.2337 N.am      1 <0>        -0.8482
     25 N3          4.9957   -2.7974   -0.0617 N.pl3     1 <0>         0.0237
     26 O3          5.0123   -4.0153   -0.0688 O.2       1 <0>        -0.1530
     27 O4          6.0422   -2.1741   -0.0683 O.3       1 <0>        -0.1542
     28 H1          2.4803    1.0695   -0.0263 H         1 <0>         0.1518
     29 H2          4.6198   -0.1424   -0.0433 H         1 <0>         0.1592
     30 H3          2.5366   -3.8665   -0.0434 H         1 <0>         0.1602
     31 H4          0.3844   -2.6777   -0.0160 H         1 <0>         0.1562
     32 H5         -0.9258   -0.5567    0.0079 H         1 <0>         0.1512
     33 H6          0.9116    1.8970    0.0035 H         1 <0>         0.1404
     34 H7         -0.4783    3.9028    0.0255 H         1 <0>         0.4208
     35 H8         -7.0074    4.1188   -0.1253 H         1 <0>         0.0753
     36 H9         -6.8542    5.4379    1.0611 H         1 <0>         0.0906
     37 H10        -6.2654    6.0651   -1.8255 H         1 <0>         0.0680
     38 H11        -7.9694    5.8551   -1.3464 H         1 <0>         0.0717
     39 H12        -6.7885    8.2315   -1.1450 H         1 <0>         0.0642
     40 H13        -7.9293    7.6765    0.1000 H         1 <0>         0.0652
     41 H14        -5.9022    8.5705    1.1565 H         1 <0>         0.0664
     42 H15        -6.0183    6.8214    1.4448 H         1 <0>         0.0741
     43 H16        -4.5182    7.7550   -0.9822 H         1 <0>         0.0795
     44 H17        -3.7458    7.9512    0.6084 H         1 <0>         0.0679
     45 H18        -1.4828    6.5008    2.0700 H         1 <0>         0.4038
     46 H19        -0.3734    7.4519    1.2410 H         1 <0>         0.4036
@<TRIPOS>BOND
     1    1    6 ar
     2    1    2 ar
     3    1   28 1
     4    2    3 ar
     5    2   29 1
     6    3    4 ar
     7    3   25 1
     8    4    5 ar
     9    4   30 1
    10    5    6 ar
    11    5   31 1
    12    6    7 1
    13    7    8 2
    14    7   32 1
    15    8    9 1
    16    8   33 1
    17    9   10 2
    18    9   11 am
    19   11   12 1
    20   11   34 1
    21   12   16 1
    22   12   13 2
    23   13   14 1
    24   13   22 1
    25   14   21 1
    26   14   15 2
    27   15   16 1
    28   15   17 1
    29   17   18 1
    30   17   35 1
    31   17   36 1
    32   18   19 1
    33   18   37 1
    34   18   38 1
    35   19   20 1
    36   19   39 1
    37   19   40 1
    38   20   21 1
    39   20   41 1
    40   20   42 1
    41   21   43 1
    42   21   44 1
    43   22   23 2
    44   22   24 am
    45   24   45 1
    46   24   46 1
    47   25   26 2
    48   25   27 1
@<TRIPOS>MOLECULE
ZINC21145733
   41    43     0     0     0
SMALL
USER_CHARGES
(2S)-2-[[4-amino-5-(2-methyl-3-furyl)-1,2,4-triazol-3-yl]sulfanyl]-N-(2,4-dichlorophenyl)propanamide
@<TRIPOS>ATOM
      1 C1         -9.9296   -4.5559   -1.3036 C.3       1 <0>        -0.0966
      2 C2         -9.0488   -5.6611   -1.8268 C.2       1 <0>         0.0668
      3 C3         -7.6907   -5.6299   -1.8976 C.2       1 <0>        -0.1326
      4 C4         -7.2920   -6.9242   -2.4651 C.2       1 <0>        -0.2088
      5 C5         -8.4320   -7.6001   -2.6838 C.2       1 <0>        -0.0147
      6 O1         -9.4710   -6.8408   -2.3044 O.3       1 <0>        -0.1716
      7 C6         -6.8000   -4.5243   -1.4829 C.2       1 <0>         0.2460
      8 N1         -7.1710   -3.3716   -0.9766 N.2       1 <0>        -0.2665
      9 N2         -6.1385   -2.6473   -0.7305 N.2       1 <0>        -0.2743
     10 C7         -5.0447   -3.2923   -1.0644 C.2       1 <0>         0.1164
     11 N3         -5.4270   -4.5076   -1.5607 N.pl3     1 <0>        -0.2070
     12 N4         -4.6147   -5.4994   -2.0322 N.3       1 <0>        -0.7635
     13 S1         -3.3928   -2.6994   -0.9090 S.3       1 <0>         0.0946
     14 C8         -3.7110   -1.0640   -0.2016 C.3       1 <0>        -0.1096
     15 H1         -4.3785   -0.3709   -0.7345 H         1 <0>         0.1308
     16 C9         -4.3312   -1.2214    1.1882 C.3       1 <0>        -0.1529
     17 C10        -2.4145   -0.3039   -0.0900 C.2       1 <0>         0.5379
     18 O2         -1.3588   -0.9011   -0.0985 O.2       1 <0>        -0.5020
     19 N5         -2.4281    1.0393    0.0191 N.am      1 <0>        -0.6742
     20 C11        -1.2246    1.7550    0.0063 C.ar      1 <0>         0.1729
     21 C12        -0.1024    1.2176   -0.6099 C.ar      1 <0>        -0.1109
     22 C13         1.0819    1.9279   -0.6262 C.ar      1 <0>        -0.0796
     23 C14         1.1529    3.1723   -0.0246 C.ar      1 <0>        -0.0445
     24 C15         0.0383    3.7082    0.5957 C.ar      1 <0>        -0.0787
     25 C16        -1.1495    3.0015    0.6156 C.ar      1 <0>        -0.0599
     26 Cl1        -2.5480    3.6740    1.3939 Cl        1 <0>        -0.0492
     27 Cl2         2.6433    4.0622   -0.0479 Cl        1 <0>        -0.0548
     28 H2         -9.3043   -3.7106   -0.9805 H         1 <0>         0.1198
     29 H3        -10.5147   -4.9268   -0.4492 H         1 <0>         0.0856
     30 H4        -10.6127   -4.2237   -2.0992 H         1 <0>         0.0855
     31 H5         -6.2866   -7.2639   -2.6655 H         1 <0>         0.1493
     32 H6         -8.5010   -8.5951   -3.0981 H         1 <0>         0.2121
     33 H7         -3.5237   -5.3595   -2.0402 H         1 <0>         0.4467
     34 H8         -5.0516   -6.4380   -2.4039 H         1 <0>         0.4433
     35 H9         -4.5246   -0.2275    1.6181 H         1 <0>         0.0740
     36 H10        -3.6373   -1.7737    1.8389 H         1 <0>         0.0718
     37 H11        -5.2776   -1.7761    1.1067 H         1 <0>         0.0969
     38 H12        -3.3846    1.5734    0.1182 H         1 <0>         0.4432
     39 H13        -0.1568    0.2468   -1.0799 H         1 <0>         0.1637
     40 H14         1.9537    1.5120   -1.1094 H         1 <0>         0.1453
     41 H15         0.0962    4.6794    1.0645 H         1 <0>         0.1494
@<TRIPOS>BOND
     1    1    2 1
     2    1   28 1
     3    1   29 1
     4    1   30 1
     5    2    6 1
     6    2    3 2
     7    3    4 1
     8    3    7 1
     9    4    5 2
    10    4   31 1
    11    5    6 1
    12    5   32 1
    13    7   11 1
    14    7    8 2
    15    8    9 1
    16    9   10 2
    17   10   11 1
    18   10   13 1
    19   11   12 1
    20   12   33 1
    21   12   34 1
    22   13   14 1
    23   14   15 1
    24   14   16 1
    25   14   17 1
    26   16   35 1
    27   16   36 1
    28   16   37 1
    29   17   18 2
    30   17   19 am
    31   19   20 1
    32   19   38 1
    33   20   25 ar
    34   20   21 ar
    35   21   22 ar
    36   21   39 1
    37   22   23 ar
    38   22   40 1
    39   23   24 ar
    40   23   27 1
    41   24   25 ar
    42   24   41 1
    43   25   26 1
@<TRIPOS>MOLECULE
ZINC39856370
   54    56     0     0     0
SMALL
USER_CHARGES

@<TRIPOS>ATOM
      1 C1          0.3961    1.1215   -0.0873 C.3       1 <0>        -0.1679
      2 C2          0.1901   -0.3938   -0.1364 C.3       1 <0>         0.0924
      3 N1         -1.2396   -0.6959   -0.0327 N.am      1 <0>        -0.5436
      4 C3         -2.0135   -0.8208   -1.1906 C.ar      1 <0>         0.1511
      5 C4         -1.4033   -0.8269   -2.4384 C.ar      1 <0>        -0.1581
      6 C5         -2.1706   -0.9503   -3.5800 C.ar      1 <0>        -0.0961
      7 C6         -3.5450   -1.0678   -3.4818 C.ar      1 <0>        -0.1431
      8 C7         -4.1557   -1.0616   -2.2412 C.ar      1 <0>        -0.0960
      9 C8         -3.3937   -0.9447   -1.0953 C.ar      1 <0>        -0.1594
     10 C9         -1.8090   -0.8535    1.1786 C.2       1 <0>         0.6074
     11 O1         -2.9668   -1.2187    1.2639 O.2       1 <0>        -0.4916
     12 C10        -1.0332   -0.5849    2.3943 C.2       1 <0>        -0.1032
     13 C11        -1.4497   -0.8188    3.6754 C.2       1 <0>        -0.0250
     14 C12        -0.3985   -0.4166    4.5082 C.2       1 <0>        -0.1562
     15 C13         0.6134    0.0468    3.7013 C.2       1 <0>         0.0683
     16 O2          0.2166   -0.0697    2.4360 O.3       1 <0>        -0.1371
     17 C14         1.9176    0.5750    4.2426 C.3       1 <0>        -0.0376
     18 C15         1.7320    0.9857    5.7058 C.3       1 <0>        -0.0500
     19 C16         1.1247   -0.1638    6.5168 C.3       1 <0>        -0.1103
     20 C17        -0.2741   -0.4363    5.9831 C.2       1 <0>         0.1848
     21 N2         -1.2837   -0.6684    6.7635 N.2       1 <0>        -0.2467
     22 N3         -1.1077   -0.6749    8.1534 N.am      1 <0>        -0.5864
     23 C18        -2.1568   -0.9161    8.9644 C.2       1 <0>         0.7352
     24 O3         -2.0040   -0.9217   10.1708 O.2       1 <0>        -0.5849
     25 N4         -3.3751   -1.1512    8.4383 N.am      1 <0>        -0.8490
     26 C19         3.0911    1.3595    6.3008 C.3       1 <0>        -0.1443
     27 C20         0.8016    2.1982    5.7750 C.3       1 <0>        -0.1530
     28 C21        -2.7748   -1.3937    4.1049 C.3       1 <0>        -0.1016
     29 H1          1.4599    1.3463   -0.1644 H         1 <0>         0.0744
     30 H2         -0.1348    1.5874   -0.9174 H         1 <0>         0.0610
     31 H3          0.0099    1.5103    0.8549 H         1 <0>         0.0627
     32 H4          0.5763   -0.7826   -1.0786 H         1 <0>         0.0928
     33 H5          0.7211   -0.8597    0.6938 H         1 <0>         0.0950
     34 H6         -0.3301   -0.7348   -2.5157 H         1 <0>         0.1263
     35 H7         -1.6968   -0.9547   -4.5505 H         1 <0>         0.1256
     36 H8         -4.1428   -1.1642   -4.3762 H         1 <0>         0.1220
     37 H9         -5.2294   -1.1528   -2.1680 H         1 <0>         0.1257
     38 H10        -3.8708   -0.9452   -0.1264 H         1 <0>         0.1728
     39 H11         2.6797   -0.2016    4.1768 H         1 <0>         0.1044
     40 H12         2.2295    1.4410    3.6587 H         1 <0>         0.1008
     41 H13         1.7403   -1.0566    6.4071 H         1 <0>         0.0999
     42 H14         1.0685    0.1177    7.5683 H         1 <0>         0.0833
     43 H15        -0.2308   -0.5057    8.5320 H         1 <0>         0.4012
     44 H16        -3.4970   -1.1467    7.4759 H         1 <0>         0.4077
     45 H17        -4.1302   -1.3248    9.0219 H         1 <0>         0.4157
     46 H18         3.5173    2.1908    5.7393 H         1 <0>         0.0664
     47 H19         2.9632    1.6526    7.3429 H         1 <0>         0.0655
     48 H20         3.7609    0.5015    6.2443 H         1 <0>         0.0636
     49 H21        -0.1650    1.9397    5.3426 H         1 <0>         0.0610
     50 H22         0.6668    2.4939    6.8155 H         1 <0>         0.0610
     51 H23         1.2401    3.0250    5.2163 H         1 <0>         0.0649
     52 H24        -2.6976   -2.4793    4.1650 H         1 <0>         0.0780
     53 H25        -3.0446   -0.9940    5.0825 H         1 <0>         0.0801
     54 H26        -3.5408   -1.1236    3.3780 H         1 <0>         0.0901
@<TRIPOS>BOND
     1    1    2 1
     2    1   29 1
     3    1   30 1
     4    1   31 1
     5    2    3 1
     6    2   32 1
     7    2   33 1
     8    3    4 1
     9    3   10 am
    10    4    9 ar
    11    4    5 ar
    12    5    6 ar
    13    5   34 1
    14    6    7 ar
    15    6   35 1
    16    7    8 ar
    17    7   36 1
    18    8    9 ar
    19    8   37 1
    20    9   38 1
    21   10   11 2
    22   10   12 1
    23   12   16 1
    24   12   13 2
    25   13   14 1
    26   13   28 1
    27   14   20 1
    28   14   15 2
    29   15   16 1
    30   15   17 1
    31   17   18 1
    32   17   39 1
    33   17   40 1
    34   18   19 1
    35   18   26 1
    36   18   27 1
    37   19   20 1
    38   19   41 1
    39   19   42 1
    40   20   21 2
    41   21   22 1
    42   22   23 am
    43   22   43 1
    44   23   24 2
    45   23   25 am
    46   25   44 1
    47   25   45 1
    48   26   46 1
    49   26   47 1
    50   26   48 1
    51   27   49 1
    52   27   50 1
    53   27   51 1
    54   28   52 1
    55   28   53 1
    56   28   54 1
@<TRIPOS>MOLECULE
ZINC58865137
   52    54     0     0     0
SMALL
USER_CHARGES

@<TRIPOS>ATOM
      1 C1         -1.5924    0.9553    0.4333 C.3       1 <0>        -0.1164
      2 C2         -0.9490   -0.4056    0.3618 C.ar      1 <0>        -0.1122
      3 C3         -0.9978   -1.1327   -0.8117 C.ar      1 <0>        -0.1026
      4 C4         -0.4077   -2.3813   -0.8780 C.ar      1 <0>        -0.1286
      5 C5          0.2330   -2.9063    0.2295 C.ar      1 <0>        -0.1061
      6 C6          0.2857   -2.1842    1.4054 C.ar      1 <0>        -0.1157
      7 C7         -0.3016   -0.9274    1.4737 C.ar      1 <0>         0.1553
      8 N1         -0.2458   -0.1911    2.6625 N.am      1 <0>        -0.6811
      9 C8         -0.2850   -0.8257    3.8508 C.2       1 <0>         0.7131
     10 O1         -0.2812   -2.0409    3.8914 O.2       1 <0>        -0.5515
     11 N2         -0.3285   -0.1134    4.9941 N.am      1 <0>        -0.5247
     12 N3         -0.3329    1.2868    4.9473 N.am      1 <0>        -0.5322
     13 C9         -0.3764    1.9991    6.0906 C.2       1 <0>         0.5616
     14 O2         -0.4119    1.4258    7.1640 O.2       1 <0>        -0.5382
     15 C10        -0.3809    3.4165    6.0433 C.2       1 <0>        -0.2351
     16 C11        -0.4245    4.1303    7.1890 C.2       1 <0>         0.0670
     17 C12        -0.4291    5.5989    7.1399 C.2       1 <0>        -0.2415
     18 C13         0.4618    6.4181    6.4070 C.2       1 <0>         0.1096
     19 N4          0.1348    7.6631    6.6194 N.2       1 <0>        -0.2886
     20 N5         -0.9638    7.7039    7.4849 N.pl3     1 <0>        -0.3128
     21 C14        -1.3088    6.4400    7.7967 C.2       1 <0>         0.1252
     22 C15        -2.4417    6.0200    8.6974 C.3       1 <0>        -0.1038
     23 C16        -1.6010    8.8639    7.9453 C.ar      1 <0>         0.1407
     24 C17        -1.9881    8.9640    9.2751 C.ar      1 <0>        -0.1229
     25 C18        -2.6155   10.1088    9.7259 C.ar      1 <0>        -0.1003
     26 C19        -2.8583   11.1548    8.8546 C.ar      1 <0>        -0.1135
     27 C20        -2.4740   11.0581    7.5297 C.ar      1 <0>        -0.1019
     28 C21        -1.8415    9.9180    7.0741 C.ar      1 <0>        -0.1034
     29 C22         1.5913    5.9364    5.5333 C.3       1 <0>        -0.0790
     30 H1         -0.8680    1.7155    0.1411 H         1 <0>         0.0720
     31 H2         -2.4471    0.9890   -0.2424 H         1 <0>         0.0736
     32 H3         -1.9277    1.1456    1.4528 H         1 <0>         0.0606
     33 H4         -1.4977   -0.7256   -1.6781 H         1 <0>         0.1267
     34 H5         -0.4475   -2.9480   -1.7965 H         1 <0>         0.1243
     35 H6          0.6924   -3.8822    0.1747 H         1 <0>         0.1266
     36 H7          0.7859   -2.5949    2.2700 H         1 <0>         0.1428
     37 H8         -0.1788    0.7761    2.6312 H         1 <0>         0.4011
     38 H9         -0.3568   -0.5702    5.8493 H         1 <0>         0.4475
     39 H10        -0.3047    1.7436    4.0921 H         1 <0>         0.4189
     40 H11        -0.3494    3.9251    5.0910 H         1 <0>         0.1315
     41 H12        -0.4559    3.6217    8.1412 H         1 <0>         0.1378
     42 H13        -2.0641    5.8651    9.7081 H         1 <0>         0.0914
     43 H14        -3.2041    6.7989    8.7097 H         1 <0>         0.0797
     44 H15        -2.8764    5.0920    8.3258 H         1 <0>         0.0928
     45 H16        -1.7991    8.1473    9.9560 H         1 <0>         0.1317
     46 H17        -2.9171   10.1871   10.7600 H         1 <0>         0.1356
     47 H18        -3.3494   12.0488    9.2094 H         1 <0>         0.1322
     48 H19        -2.6650   11.8767    6.8516 H         1 <0>         0.1346
     49 H20        -1.5379    9.8448    6.0402 H         1 <0>         0.1330
     50 H21         1.2272    5.7908    4.5162 H         1 <0>         0.0830
     51 H22         2.3901    6.6780    5.5306 H         1 <0>         0.0790
     52 H23         1.9734    4.9921    5.9211 H         1 <0>         0.0830
@<TRIPOS>BOND
     1    1    2 1
     2    1   30 1
     3    1   31 1
     4    1   32 1
     5    2    7 ar
     6    2    3 ar
     7    3    4 ar
     8    3   33 1
     9    4    5 ar
    10    4   34 1
    11    5    6 ar
    12    5   35 1
    13    6    7 ar
    14    6   36 1
    15    7    8 1
    16    8    9 am
    17    8   37 1
    18    9   10 2
    19    9   11 am
    20   11   12 1
    21   11   38 1
    22   12   13 am
    23   12   39 1
    24   13   14 2
    25   13   15 1
    26   15   16 2
    27   15   40 1
    28   16   17 1
    29   16   41 1
    30   17   21 2
    31   17   18 1
    32   18   19 2
    33   18   29 1
    34   19   20 1
    35   20   21 1
    36   20   23 1
    37   21   22 1
    38   22   42 1
    39   22   43 1
    40   22   44 1
    41   23   28 ar
    42   23   24 ar
    43   24   25 ar
    44   24   45 1
    45   25   26 ar
    46   25   46 1
    47   26   27 ar
    48   26   47 1
    49   27   28 ar
    50   27   48 1
    51   28   49 1
    52   29   50 1
    53   29   51 1
    54   29   52 1
@<TRIPOS>MOLECULE
ZINC66510676
   52    55     0     0     0
SMALL
USER_CHARGES

@<TRIPOS>ATOM
      1 C1         -0.0307    1.3757    0.0425 C.ar      1 <0>         0.0033
      2 C2          1.1356    2.0965    0.0352 C.ar      1 <0>        -0.2149
      3 C3          2.3622    1.4386   -0.0027 C.ar      1 <0>         0.2617
      4 C4          2.4090    0.0474   -0.0333 C.ar      1 <0>        -0.2158
      5 C5          1.2464   -0.6795   -0.0262 C.ar      1 <0>        -0.0063
      6 C6          0.0126   -0.0219    0.0118 C.ar      1 <0>        -0.1953
      7 C7         -1.2389   -0.7999    0.0200 C.2       1 <0>         0.5123
      8 O1         -2.3103   -0.2272    0.0535 O.2       1 <0>        -0.4972
      9 O2         -1.1955   -2.1465   -0.0095 O.3       1 <0>        -0.2932
     10 C8         -2.3718   -2.8212   -0.1073 C.ar      1 <0>         0.0703
     11 C9         -2.9023   -3.4554    1.0072 C.ar      1 <0>        -0.0852
     12 C10        -4.0964   -4.1412    0.9088 C.ar      1 <0>        -0.1355
     13 C11        -4.7670   -4.1957   -0.3059 C.ar      1 <0>         0.1630
     14 C12        -4.2359   -3.5602   -1.4204 C.ar      1 <0>        -0.1080
     15 C13        -3.0442   -2.8704   -1.3198 C.ar      1 <0>        -0.0849
     16 C14        -4.9664   -3.6200   -2.7368 C.3       1 <0>        -0.0783
     17 C15        -5.6728   -4.9697   -2.8686 C.3       1 <0>        -0.1388
     18 C16        -6.4468   -5.2678   -1.6128 C.2       1 <0>         0.5214
     19 O3         -7.5053   -5.8556   -1.6863 O.2       1 <0>        -0.5233
     20 N1         -5.9782   -4.8899   -0.4094 N.am      1 <0>        -0.6634
     21 N2          3.5428    2.1726   -0.0105 N.pl3     1 <0>        -0.6163
     22 C17         4.8449    1.4969    0.0725 C.3       1 <0>         0.1110
     23 C18         5.6428    2.1046    1.2304 C.3       1 <0>        -0.1350
     24 C19         5.7324    3.6208    1.0425 C.3       1 <0>        -0.1116
     25 C20         4.3252    4.2224    1.0574 C.3       1 <0>        -0.1263
     26 H1          3.8366    3.9816    2.0015 H         1 <0>         0.1050
     27 C21         3.5125    3.6383   -0.1081 C.3       1 <0>         0.1345
     28 C22         4.4164    5.7189    0.9055 C.2       1 <0>         0.5245
     29 O4          3.8820    6.2666   -0.0355 O.2       1 <0>        -0.5392
     30 N3          5.0917    6.4487    1.8153 N.am      1 <0>        -0.8532
     31 H2         -0.9817    1.8864    0.0764 H         1 <0>         0.1370
     32 H3          1.1029    3.1757    0.0585 H         1 <0>         0.1345
     33 H4          3.3620   -0.4598   -0.0631 H         1 <0>         0.1331
     34 H5          1.2834   -1.7586   -0.0503 H         1 <0>         0.1378
     35 H6         -2.3806   -3.4127    1.9518 H         1 <0>         0.1388
     36 H7         -4.5085   -4.6355    1.7762 H         1 <0>         0.1391
     37 H8         -2.6334   -2.3728   -2.1858 H         1 <0>         0.1359
     38 H9         -5.7038   -2.8185   -2.7797 H         1 <0>         0.0877
     39 H10        -4.2539   -3.5018   -3.5532 H         1 <0>         0.0953
     40 H11        -6.3568   -4.9390   -3.7167 H         1 <0>         0.1126
     41 H12        -4.9314   -5.7520   -3.0312 H         1 <0>         0.1063
     42 H13        -6.4829   -5.1001    0.3918 H         1 <0>         0.4130
     43 H14         4.6934    0.4325    0.2521 H         1 <0>         0.0909
     44 H15         5.3900    1.6381   -0.8608 H         1 <0>         0.0700
     45 H16         5.1418    1.8838    2.1729 H         1 <0>         0.0722
     46 H17         6.6465    1.6797    1.2430 H         1 <0>         0.0833
     47 H18         6.3206    4.0529    1.8520 H         1 <0>         0.0727
     48 H19         6.2112    3.8408    0.0883 H         1 <0>         0.0730
     49 H20         3.9512    3.9505   -1.0558 H         1 <0>         0.0796
     50 H21         2.4817    3.9872   -0.0476 H         1 <0>         0.0952
     51 H22         5.5191    6.0107    2.5679 H         1 <0>         0.4022
     52 H23         5.1504    7.4120    1.7175 H         1 <0>         0.4044
@<TRIPOS>BOND
     1    1    6 ar
     2    1    2 ar
     3    1   31 1
     4    2    3 ar
     5    2   32 1
     6    3    4 ar
     7    3   21 1
     8    4    5 ar
     9    4   33 1
    10    5    6 ar
    11    5   34 1
    12    6    7 1
    13    7    8 2
    14    7    9 1
    15    9   10 1
    16   10   15 ar
    17   10   11 ar
    18   11   12 ar
    19   11   35 1
    20   12   13 ar
    21   12   36 1
    22   13   20 1
    23   13   14 ar
    24   14   15 ar
    25   14   16 1
    26   15   37 1
    27   16   17 1
    28   16   38 1
    29   16   39 1
    30   17   18 1
    31   17   40 1
    32   17   41 1
    33   18   19 2
    34   18   20 am
    35   20   42 1
    36   21   27 1
    37   21   22 1
    38   22   23 1
    39   22   43 1
    40   22   44 1
    41   23   24 1
    42   23   45 1
    43   23   46 1
    44   24   25 1
    45   24   47 1
    46   24   48 1
    47   25   26 1
    48   25   27 1
    49   25   28 1
    50   27   49 1
    51   27   50 1
    52   28   29 2
    53   28   30 am
    54   30   51 1
    55   30   52 1
@<TRIPOS>MOLECULE
ZINC03486535
   34    35     0     0     0
SMALL
USER_CHARGES
2-[(4-amino-5-methyl-1,2,4-triazol-3-yl)sulfanyl]-N-(2-bromo-4-methyl-phenyl)-acetamide
@<TRIPOS>ATOM
      1 C1          2.1038   13.9906    0.4843 C.3       1 <0>        -0.1154
      2 C2          1.5263   12.6035    0.3694 C.ar      1 <0>        -0.0901
      3 C3          2.2078   11.6286   -0.3361 C.ar      1 <0>        -0.0858
      4 C4          1.6813   10.3563   -0.4439 C.ar      1 <0>        -0.1094
      5 C5          0.4662   10.0559    0.1573 C.ar      1 <0>         0.1642
      6 C6         -0.2189   11.0386    0.8610 C.ar      1 <0>        -0.1133
      7 C7          0.3160   12.3084    0.9691 C.ar      1 <0>        -0.0737
      8 Br1        -1.8778   10.6374    1.6753 Br        1 <0>        -0.0407
      9 N1         -0.0699    8.7675    0.0499 N.am      1 <0>        -0.6631
     10 C8          0.7483    7.6966    0.0302 C.2       1 <0>         0.5389
     11 O1          1.9511    7.8524    0.0234 O.2       1 <0>        -0.5015
     12 C9          0.1686    6.3056    0.0167 C.3       1 <0>        -0.1427
     13 S1          1.5116    5.0925   -0.0085 S.3       1 <0>         0.0768
     14 C10         0.5755    3.5998   -0.0207 C.2       1 <0>         0.0989
     15 N2         -0.7335    3.4992   -0.0125 N.2       1 <0>        -0.2784
     16 N3         -1.0763    2.2607   -0.0315 N.2       1 <0>        -0.2804
     17 C11        -0.0161    1.5033   -0.0432 C.2       1 <0>         0.2224
     18 N4          1.0741    2.3289   -0.0406 N.pl3     1 <0>        -0.3057
     19 N5          2.3890    1.9589   -0.0545 N.3       1 <0>        -0.5824
     20 C12         0.0048   -0.0035   -0.0625 C.3       1 <0>        -0.0640
     21 H1          1.7501   14.6015   -0.3462 H         1 <0>         0.0750
     22 H2          1.7872   14.4392    1.4259 H         1 <0>         0.0699
     23 H3          3.1920   13.9346    0.4564 H         1 <0>         0.0710
     24 H4          3.1529   11.8626   -0.8036 H         1 <0>         0.1350
     25 H5          2.2140    9.5959   -0.9957 H         1 <0>         0.1494
     26 H6         -0.2142   13.0721    1.5187 H         1 <0>         0.1383
     27 H7         -1.0303    8.6453   -0.0105 H         1 <0>         0.4179
     28 H8         -0.4520    6.1792   -0.8704 H         1 <0>         0.1345
     29 H9         -0.4390    6.1565    0.9093 H         1 <0>         0.1355
     30 H10         2.7304    1.8727   -1.0001 H         1 <0>         0.3684
     31 H11         2.9525    2.6065    0.4758 H         1 <0>         0.3784
     32 H12         0.0173   -0.3798    0.9604 H         1 <0>         0.0910
     33 H13        -0.8838   -0.3726   -0.5746 H         1 <0>         0.0963
     34 H14         0.8960   -0.3477   -0.5873 H         1 <0>         0.0847
@<TRIPOS>BOND
     1    1    2 1
     2    1   21 1
     3    1   22 1
     4    1   23 1
     5    2    7 ar
     6    2    3 ar
     7    3    4 ar
     8    3   24 1
     9    4    5 ar
    10    4   25 1
    11    5    6 ar
    12    5    9 1
    13    6    7 ar
    14    6    8 1
    15    7   26 1
    16    9   10 am
    17    9   27 1
    18   10   11 2
    19   10   12 1
    20   12   13 1
    21   12   28 1
    22   12   29 1
    23   13   14 1
    24   14   18 1
    25   14   15 2
    26   15   16 1
    27   16   17 2
    28   17   18 1
    29   17   20 1
    30   18   19 1
    31   19   30 1
    32   19   31 1
    33   20   32 1
    34   20   33 1
    35   20   34 1
@<TRIPOS>MOLECULE
ZINC37844295
   35    36     0     0     0
SMALL
USER_CHARGES

@<TRIPOS>ATOM
      1 C1         -0.0091    1.4926    0.0037 C.3       1 <0>        -0.1257
      2 C2          0.0155   -0.0142    0.0019 C.ar      1 <0>        -0.0530
      3 C3          0.0277   -0.7041   -1.1947 C.ar      1 <0>        -0.1220
      4 C4          0.0497   -2.0865   -1.1973 C.ar      1 <0>        -0.0259
      5 C5          0.0600   -2.7833   -0.0026 C.ar      1 <0>        -0.6653
      6 C6          0.0480   -2.0997    1.1972 C.ar      1 <0>        -0.0179
      7 C7          0.0316   -0.7107    1.2033 C.ar      1 <0>         0.1215
      8 N1          0.0256   -0.0153    2.4164 N.am      1 <0>        -0.6731
      9 C8         -0.6316   -0.5202    3.4793 C.2       1 <0>         0.5890
     10 O1         -1.1503   -1.6189    3.4084 O.2       1 <0>        -0.4925
     11 C9         -0.7216    0.2543    4.7212 C.2       1 <0>        -0.0538
     12 C10        -1.3534   -0.1383    5.8825 C.2       1 <0>        -0.0630
     13 C11        -1.1943    0.8986    6.8078 C.2       1 <0>        -0.1833
     14 C12        -0.4837    1.8847    6.2086 C.2       1 <0>         0.0750
     15 N2         -0.1857    1.5027    4.9420 N.pl3     1 <0>        -0.5329
     16 H1          0.3194    2.0235    4.2981 H         1 <0>         0.4221
     17 Br1        -1.8542    0.9207    8.5797 Br        1 <0>        -0.0166
     18 S1          0.0881   -4.5450   -0.0115 S.o2      1 <0>         2.6949
     19 O2         -0.4568   -4.9662    1.2315 O.2       1 <0>        -0.9459
     20 O3         -0.4555   -4.9536   -1.2592 O.2       1 <0>        -0.9561
     21 N3          1.6777   -5.0094   -0.0129 N.pl3     1 <0>        -1.1195
     22 C13         2.5305   -4.7059    1.1389 C.3       1 <0>         0.0824
     23 H2          1.0125    1.8726    0.0001 H         1 <0>         0.0809
     24 H3         -0.5323    1.8485   -0.8837 H         1 <0>         0.0816
     25 H4         -0.5252    1.8464    0.8962 H         1 <0>         0.0674
     26 H5          0.0196   -0.1630   -2.1294 H         1 <0>         0.1397
     27 H6          0.0585   -2.6235   -2.1343 H         1 <0>         0.1443
     28 H7          0.0553   -2.6444    2.1297 H         1 <0>         0.1593
     29 H8          0.4944    0.8304    2.4930 H         1 <0>         0.4063
     30 H9         -1.8734   -1.0705    6.0465 H         1 <0>         0.1620
     31 H10        -0.1981    2.8203    6.6663 H         1 <0>         0.1859
     32 H11         2.0441   -5.4823   -0.7765 H         1 <0>         0.4202
     33 H12         2.5716   -3.6267    1.2863 H         1 <0>         0.0576
     34 H13         2.1188   -5.1790    2.0305 H         1 <0>         0.0709
     35 H14         3.5357   -5.0863    0.9570 H         1 <0>         0.0852
@<TRIPOS>BOND
     1    1    2 1
     2    1   23 1
     3    1   24 1
     4    1   25 1
     5    2    7 ar
     6    2    3 ar
     7    3    4 ar
     8    3   26 1
     9    4    5 ar
    10    4   27 1
    11    5    6 ar
    12    5   18 1
    13    6    7 ar
    14    6   28 1
    15    7    8 1
    16    8    9 am
    17    8   29 1
    18    9   10 2
    19    9   11 1
    20   11   15 1
    21   11   12 2
    22   12   13 1
    23   12   30 1
    24   13   14 2
    25   13   17 1
    26   14   15 1
    27   14   31 1
    28   15   16 1
    29   18   19 2
    30   18   20 2
    31   18   21 1
    32   21   22 1
    33   21   32 1
    34   22   33 1
    35   22   34 1
    36   22   35 1
@<TRIPOS>MOLECULE
ZINC48803387
   46    47     0     0     0
SMALL
USER_CHARGES

@<TRIPOS>ATOM
      1 C1          0.0366    1.5542    0.0047 C.3       1 <0>        -0.1260
      2 C2          0.0494    0.0473   -0.0065 C.ar      1 <0>        -0.0711
      3 C3          0.0556   -0.6350   -1.2090 C.ar      1 <0>        -0.1151
      4 C4          0.0674   -2.0170   -1.2193 C.ar      1 <0>        -0.1128
      5 C5          0.0734   -2.7172   -0.0271 C.ar      1 <0>        -0.1181
      6 C6          0.0681   -2.0351    1.1750 C.ar      1 <0>        -0.1128
      7 C7          0.0607   -0.6526    1.1852 C.ar      1 <0>        -0.0980
      8 C8          0.0602    0.0912    2.4959 C.3       1 <0>         0.1825
      9 H1          0.6415    1.0077    2.3938 H         1 <0>         0.1061
     10 C9         -1.3781    0.4401    2.8838 C.3       1 <0>        -0.1624
     11 N1          0.6558   -0.7514    3.5358 N.am      1 <0>        -0.6932
     12 C10         1.2224   -0.1851    4.6196 C.2       1 <0>         0.5139
     13 O1          1.2393    1.0230    4.7341 O.2       1 <0>        -0.5108
     14 C11         1.8295   -1.0441    5.6797 C.2       1 <0>         0.5111
     15 O2          1.8127   -2.2524    5.5652 O.2       1 <0>        -0.4967
     16 N2          2.3962   -0.4777    6.7635 N.am      1 <0>        -0.6396
     17 C12         2.8793   -1.2816    7.8003 C.ar      1 <0>         0.1472
     18 C13         3.4616   -2.5103    7.5137 C.ar      1 <0>        -0.1037
     19 C14         3.9399   -3.3055    8.5373 C.ar      1 <0>        -0.1141
     20 C15         3.8402   -2.8814    9.8503 C.ar      1 <0>         0.0642
     21 C16         3.2583   -1.6524   10.1429 C.ar      1 <0>         0.1324
     22 C17         2.7828   -0.8503    9.1161 C.ar      1 <0>        -0.1151
     23 N3          3.1570   -1.2234   11.4721 N.am      1 <0>        -0.6722
     24 C18         2.0925   -0.4968   11.8663 C.2       1 <0>         0.5132
     25 O3          1.2641   -0.1443   11.0535 O.2       1 <0>        -0.5218
     26 C19         1.9316   -0.1222   13.3172 C.3       1 <0>        -0.1733
     27 F1          4.3081   -3.6616   10.8491 F         1 <0>        -0.1348
     28 H2          1.0611    1.9263    0.0028 H         1 <0>         0.0747
     29 H3         -0.4843    1.9197   -0.8803 H         1 <0>         0.0714
     30 H4         -0.4763    1.9066    0.8996 H         1 <0>         0.0717
     31 H5          0.0509   -0.0881   -2.1402 H         1 <0>         0.1258
     32 H6          0.0715   -2.5500   -2.1586 H         1 <0>         0.1247
     33 H7          0.0819   -3.7971   -0.0351 H         1 <0>         0.1254
     34 H8          0.0725   -2.5820    2.1062 H         1 <0>         0.1205
     35 H9         -1.9593   -0.4763    2.9860 H         1 <0>         0.0636
     36 H10        -1.3784    0.9781    3.8318 H         1 <0>         0.0683
     37 H11        -1.8212    1.0671    2.1101 H         1 <0>         0.0754
     38 H12         0.6423   -1.7170    3.4443 H         1 <0>         0.4128
     39 H13         2.4688    0.4877    6.8242 H         1 <0>         0.4261
     40 H14         3.5401   -2.8442    6.4896 H         1 <0>         0.1517
     41 H15         4.3921   -4.2600    8.3120 H         1 <0>         0.1475
     42 H16         2.3344    0.1064    9.3404 H         1 <0>         0.1560
     43 H17         3.8529   -1.4491   12.1090 H         1 <0>         0.4172
     44 H18         2.7883    0.4712   13.6364 H         1 <0>         0.0943
     45 H19         1.0190    0.4604   13.4429 H         1 <0>         0.0995
     46 H20         1.8710   -1.0273   13.9215 H         1 <0>         0.0943
@<TRIPOS>BOND
     1    1    2 1
     2    1   28 1
     3    1   29 1
     4    1   30 1
     5    2    7 ar
     6    2    3 ar
     7    3    4 ar
     8    3   31 1
     9    4    5 ar
    10    4   32 1
    11    5    6 ar
    12    5   33 1
    13    6    7 ar
    14    6   34 1
    15    7    8 1
    16    8    9 1
    17    8   10 1
    18    8   11 1
    19   10   35 1
    20   10   36 1
    21   10   37 1
    22   11   12 am
    23   11   38 1
    24   12   13 2
    25   12   14 1
    26   14   15 2
    27   14   16 am
    28   16   17 1
    29   16   39 1
    30   17   22 ar
    31   17   18 ar
    32   18   19 ar
    33   18   40 1
    34   19   20 ar
    35   19   41 1
    36   20   21 ar
    37   20   27 1
    38   21   22 ar
    39   21   23 1
    40   22   42 1
    41   23   24 am
    42   23   43 1
    43   24   25 2
    44   24   26 1
    45   26   44 1
    46   26   45 1
    47   26   46 1
@<TRIPOS>MOLECULE
ZINC58667728
   45    47     0     0     0
SMALL
USER_CHARGES

@<TRIPOS>ATOM
      1 C1         -0.0184    1.5028    0.0103 C.3       1 <0>        -0.0902
      2 C2          0.0021   -0.0041    0.0020 C.2       1 <0>         0.1234
      3 C3          0.0080   -0.8237   -1.1409 C.2       1 <0>        -0.2500
      4 C4          0.0273   -2.1079   -0.7353 C.2       1 <0>         0.0986
      5 O1          0.0335   -2.1190    0.6064 O.3       1 <0>        -0.0771
      6 N1          0.0230   -0.7748    1.0524 N.2       1 <0>        -0.3165
      7 C5          0.0393   -3.3197   -1.6311 C.3       1 <0>        -0.0936
      8 C6         -0.0053   -0.3478   -2.5707 C.3       1 <0>        -0.0585
      9 C7          1.4109   -0.1695   -3.0540 C.2       1 <0>         0.5064
     10 O2          2.3396   -0.4056   -2.3106 O.2       1 <0>        -0.4859
     11 N2          1.6454    0.2524   -4.3124 N.am      1 <0>        -0.6218
     12 C8          2.9481    0.4164   -4.7570 C.2       1 <0>         0.0371
     13 C9          3.3715    0.8430   -6.0047 C.2       1 <0>        -0.2272
     14 C10         4.8064    0.9279   -6.2099 C.2       1 <0>        -0.0359
     15 C11         5.5696    0.5753   -5.1429 C.2       1 <0>        -0.2039
     16 S1          4.3667    0.1501   -3.9029 S.3       1 <0>         0.2925
     17 C12         7.0725    0.5548   -5.0340 C.3       1 <0>        -0.0664
     18 C13         5.3978    1.3687   -7.4957 C.ar      1 <0>        -0.0309
     19 C14         5.2162    0.6049   -8.6478 C.ar      1 <0>        -0.1033
     20 C15         5.7687    1.0205   -9.8421 C.ar      1 <0>        -0.1192
     21 C16         6.5021    2.1922   -9.8974 C.ar      1 <0>        -0.1160
     22 C17         6.6856    2.9542   -8.7575 C.ar      1 <0>        -0.1176
     23 C18         6.1330    2.5516   -7.5588 C.ar      1 <0>        -0.0968
     24 C19         2.4205    1.1902   -7.0633 C.2       1 <0>         0.5889
     25 O3          2.0145    2.3331   -7.1658 O.2       1 <0>        -0.5306
     26 N3          1.9950    0.2442   -7.9238 N.am      1 <0>        -0.8479
     27 H1          1.0042    1.8801    0.0026 H         1 <0>         0.0917
     28 H2         -0.5455    1.8639   -0.8728 H         1 <0>         0.0852
     29 H3         -0.5286    1.8543    0.9071 H         1 <0>         0.0856
     30 H4          1.0697   -3.5980   -1.8521 H         1 <0>         0.0979
     31 H5         -0.4610   -4.1477   -1.1290 H         1 <0>         0.0909
     32 H6         -0.4822   -3.0898   -2.5603 H         1 <0>         0.0931
     33 H7         -0.5120   -1.0846   -3.1941 H         1 <0>         0.1136
     34 H8         -0.5327    0.6041   -2.6319 H         1 <0>         0.1152
     35 H9          0.9026    0.4412   -4.9070 H         1 <0>         0.4196
     36 H10         7.4243    1.5233   -4.6785 H         1 <0>         0.0780
     37 H11         7.3753   -0.2219   -4.3318 H         1 <0>         0.0744
     38 H12         7.5049    0.3481   -6.0130 H         1 <0>         0.0794
     39 H13         4.6444   -0.3104   -8.6057 H         1 <0>         0.1183
     40 H14         5.6287    0.4297  -10.7352 H         1 <0>         0.1234
     41 H15         6.9333    2.5132  -10.8341 H         1 <0>         0.1229
     42 H16         7.2594    3.8679   -8.8066 H         1 <0>         0.1251
     43 H17         6.2731    3.1496   -6.6704 H         1 <0>         0.1231
     44 H18         2.3185   -0.6666   -7.8421 H         1 <0>         0.4017
     45 H19         1.3652    0.4741   -8.6248 H         1 <0>         0.4034
@<TRIPOS>BOND
     1    1    2 1
     2    1   27 1
     3    1   28 1
     4    1   29 1
     5    2    6 2
     6    2    3 1
     7    3    4 2
     8    3    8 1
     9    4    5 1
    10    4    7 1
    11    5    6 1
    12    7   30 1
    13    7   31 1
    14    7   32 1
    15    8    9 1
    16    8   33 1
    17    8   34 1
    18    9   10 2
    19    9   11 am
    20   11   12 1
    21   11   35 1
    22   12   16 1
    23   12   13 2
    24   13   14 1
    25   13   24 1
    26   14   15 2
    27   14   18 1
    28   15   16 1
    29   15   17 1
    30   17   36 1
    31   17   37 1
    32   17   38 1
    33   18   23 ar
    34   18   19 ar
    35   19   20 ar
    36   19   39 1
    37   20   21 ar
    38   20   40 1
    39   21   22 ar
    40   21   41 1
    41   22   23 ar
    42   22   42 1
    43   23   43 1
    44   24   25 2
    45   24   26 am
    46   26   44 1
    47   26   45 1
@<TRIPOS>MOLECULE
ZINC67095640
   47    48     0     0     0
SMALL
USER_CHARGES

@<TRIPOS>ATOM
      1 C1         -0.0184    1.5028    0.0103 C.3       1 <0>        -0.1197
      2 C2          0.0021   -0.0041    0.0020 C.ar      1 <0>        -0.0611
      3 C3          0.0057   -0.6887   -1.1989 C.ar      1 <0>        -0.1319
      4 C4          0.0245   -2.0709   -1.2065 C.ar      1 <0>        -0.0572
      5 C5          0.0400   -2.7685   -0.0132 C.ar      1 <0>        -0.1324
      6 C6          0.0373   -2.0839    1.1877 C.ar      1 <0>        -0.0467
      7 C7          0.0229   -0.7016    1.1953 C.ar      1 <0>        -0.1295
      8 C8          0.0538   -2.8444    2.4886 C.3       1 <0>        -0.1262
      9 C9          0.0595   -4.2753   -0.0215 C.3       1 <0>         0.1508
     10 N1          1.4468   -4.7457   -0.0317 N.pl3     1 <0>        -0.7244
     11 C10         1.7198   -6.1155   -0.0407 C.ar      1 <0>         0.3514
     12 C11         0.6767   -7.0332   -0.0457 C.ar      1 <0>        -0.2252
     13 C12         0.9500   -8.3867   -0.0550 C.ar      1 <0>         0.0719
     14 C13         2.2604   -8.8292   -0.0589 C.ar      1 <0>        -0.7483
     15 C14         3.3008   -7.9186   -0.0535 C.ar      1 <0>         0.1274
     16 C15         3.0345   -6.5632   -0.0504 C.ar      1 <0>        -0.7523
     17 S1          4.3611   -5.4036   -0.0514 S.o2      1 <0>         2.4929
     18 O1          4.0713   -4.5202    1.0232 O.2       1 <0>        -0.9318
     19 O2          5.5383   -6.1994   -0.0377 O.2       1 <0>        -0.9280
     20 C16         4.2157   -4.5303   -1.6347 C.3       1 <0>        -0.6587
     21 S2          2.6047  -10.5572   -0.0703 S.o2      1 <0>         2.7040
     22 O3          3.9058  -10.7157    0.4785 O.2       1 <0>        -0.9606
     23 O4          1.4631  -11.2023    0.4774 O.2       1 <0>        -0.9638
     24 N2          2.6990  -11.0272   -1.6553 N.pl3     1 <0>        -1.2509
     25 C17         0.0274   -2.8172   -2.5157 C.3       1 <0>        -0.1234
     26 H1          1.0042    1.8801    0.0026 H         1 <0>         0.0742
     27 H2         -0.5455    1.8639   -0.8728 H         1 <0>         0.0688
     28 H3         -0.5286    1.8543    0.9071 H         1 <0>         0.0693
     29 H4         -0.0064   -0.1436   -2.1312 H         1 <0>         0.1249
     30 H5          0.0245   -0.1667    2.1335 H         1 <0>         0.1260
     31 H6          1.0853   -3.0144    2.7970 H         1 <0>         0.0801
     32 H7         -0.4637   -2.2661    3.2541 H         1 <0>         0.0707
     33 H8         -0.4484   -3.8026    2.3557 H         1 <0>         0.0700
     34 H9         -0.4447   -4.6501    0.8693 H         1 <0>         0.0862
     35 H10        -0.4546   -4.6404   -0.9106 H         1 <0>         0.0859
     36 H11         2.1759   -4.1059   -0.0323 H         1 <0>         0.4042
     37 H12        -0.3468   -6.6884   -0.0419 H         1 <0>         0.1429
     38 H13         0.1396   -9.1006   -0.0589 H         1 <0>         0.1509
     39 H14         4.3229   -8.2674   -0.0559 H         1 <0>         0.1641
     40 H15         3.2466   -4.0343   -1.6884 H         1 <0>         0.1250
     41 H16         5.0092   -3.7872   -1.7139 H         1 <0>         0.1395
     42 H17         4.3041   -5.2448   -2.4532 H         1 <0>         0.1392
     43 H18         2.5697  -10.3763   -2.3628 H         1 <0>         0.4162
     44 H19         2.8837  -11.9535   -1.8763 H         1 <0>         0.4216
     45 H20         1.0557   -2.9832   -2.8370 H         1 <0>         0.0710
     46 H21        -0.4727   -3.7772   -2.3878 H         1 <0>         0.0713
     47 H22        -0.4985   -2.2310   -3.2693 H         1 <0>         0.0719
@<TRIPOS>BOND
     1    1    2 1
     2    1   26 1
     3    1   27 1
     4    1   28 1
     5    2    7 ar
     6    2    3 ar
     7    3    4 ar
     8    3   29 1
     9    4    5 ar
    10    4   25 1
    11    5    6 ar
    12    5    9 1
    13    6    7 ar
    14    6    8 1
    15    7   30 1
    16    8   31 1
    17    8   32 1
    18    8   33 1
    19    9   10 1
    20    9   34 1
    21    9   35 1
    22   10   11 1
    23   10   36 1
    24   11   16 ar
    25   11   12 ar
    26   12   13 ar
    27   12   37 1
    28   13   14 ar
    29   13   38 1
    30   14   15 ar
    31   14   21 1
    32   15   16 ar
    33   15   39 1
    34   16   17 1
    35   17   18 2
    36   17   19 2
    37   17   20 1
    38   20   40 1
    39   20   41 1
    40   20   42 1
    41   21   22 2
    42   21   23 2
    43   21   24 1
    44   24   43 1
    45   24   44 1
    46   25   45 1
    47   25   46 1
    48   25   47 1
@<TRIPOS>MOLECULE
ZINC07461111
   31    32     0     0     0
SMALL
USER_CHARGES
2-(4-amino-5-cyano-pyrimidin-2-yl)sulfanyl-N-(3-bromo-4-chloro-phenyl)acetamide
@<TRIPOS>ATOM
      1 C1          2.2471    1.1931   -0.7693 C.ar      1 <0>        -0.0941
      2 C2          1.0400    1.8647   -0.7589 C.ar      1 <0>        -0.0817
      3 C3         -0.0166    1.3797   -0.0092 C.ar      1 <0>        -0.0277
      4 C4          0.1326    0.2196    0.7324 C.ar      1 <0>        -0.0689
      5 C5          1.3379   -0.4560    0.7248 C.ar      1 <0>        -0.1053
      6 C6          2.3997    0.0297   -0.0269 C.ar      1 <0>         0.1576
      7 N1          3.6218   -0.6526   -0.0364 N.am      1 <0>        -0.6650
      8 C7          4.7763    0.0342   -0.1455 C.2       1 <0>         0.5347
      9 O1          4.7633    1.2470   -0.1390 O.2       1 <0>        -0.4984
     10 C8          6.0833   -0.7046   -0.2754 C.3       1 <0>        -0.1614
     11 S1          7.4400    0.4868   -0.4019 S.3       1 <0>         0.1208
     12 C9          8.8057   -0.6180   -0.5392 C.ar      1 <0>         0.3435
     13 N2          8.5796   -1.9262   -0.5174 N.ar      1 <0>        -0.5686
     14 C10         9.5712   -2.7919   -0.6227 C.ar      1 <0>         0.2550
     15 C11        10.8804   -2.3146   -0.7477 C.ar      1 <0>        -0.2166
     16 C12        11.0819   -0.9171   -0.7612 C.ar      1 <0>         0.5008
     17 N3         10.0275   -0.1175   -0.6555 N.ar      1 <0>        -0.5563
     18 N4         12.3523   -0.3918   -0.8827 N.pl3     1 <0>        -0.8154
     19 C13        11.9856   -3.2184   -0.8583 C.1       1 <0>         0.2594
     20 N5         12.8624   -3.9353   -0.9461 N.1       1 <0>        -0.4065
     21 Br1        -1.3139   -0.4399    1.7564 Br        1 <0>        -0.0190
     22 Cl1        -1.5298    2.2304    0.0077 Cl        1 <0>        -0.0420
     23 H1          3.0717    1.5728   -1.3543 H         1 <0>         0.1520
     24 H2          0.9212    2.7696   -1.3364 H         1 <0>         0.1489
     25 H3          1.4542   -1.3605    1.3033 H         1 <0>         0.1470
     26 H4          3.6379   -1.6198    0.0355 H         1 <0>         0.4193
     27 H5          6.2334   -1.3344    0.6015 H         1 <0>         0.1349
     28 H6          6.0615   -1.3268   -1.1702 H         1 <0>         0.1360
     29 H7          9.3747   -3.8538   -0.6079 H         1 <0>         0.1822
     30 H8         12.4808    0.5696   -0.8914 H         1 <0>         0.4180
     31 H9         13.1167   -0.9840   -0.9594 H         1 <0>         0.4166
@<TRIPOS>BOND
     1    1    6 ar
     2    1    2 ar
     3    1   23 1
     4    2    3 ar
     5    2   24 1
     6    3    4 ar
     7    3   22 1
     8    4    5 ar
     9    4   21 1
    10    5    6 ar
    11    5   25 1
    12    6    7 1
    13    7    8 am
    14    7   26 1
    15    8    9 2
    16    8   10 1
    17   10   11 1
    18   10   27 1
    19   10   28 1
    20   11   12 1
    21   12   17 ar
    22   12   13 ar
    23   13   14 ar
    24   14   15 ar
    25   14   29 1
    26   15   16 ar
    27   15   19 1
    28   16   17 ar
    29   16   18 1
    30   18   30 1
    31   18   31 1
    32   19   20 3
@<TRIPOS>MOLECULE
ZINC28680550
   43    45     0     0     0
SMALL
USER_CHARGES
(2R)-1-acetyl-N-(4-amino-3,5-dichloro-phenyl)-2-methyl-indoline-5-sulfonamide
@<TRIPOS>ATOM
      1 C1          0.7782    8.8011   -1.2437 C.3       1 <0>        -0.1842
      2 C2         -0.1940    8.8149   -0.0624 C.3       1 <0>         0.1236
      3 H1          0.2294    9.4635    0.7187 H         1 <0>         0.0985
      4 C3         -0.4674    7.3810    0.4201 C.3       1 <0>        -0.0808
      5 C4         -1.9558    7.1929    0.2310 C.ar      1 <0>        -0.1546
      6 C5         -2.7732    6.1106    0.4957 C.ar      1 <0>         0.0289
      7 C6         -4.1273    6.1812    0.2275 C.ar      1 <0>        -0.6993
      8 C7         -4.6652    7.3429   -0.2958 C.ar      1 <0>         0.0090
      9 C8         -3.8548    8.4272   -0.5554 C.ar      1 <0>        -0.1540
     10 C9         -2.4850    8.3613   -0.2929 C.ar      1 <0>         0.2061
     11 N1         -1.4986    9.3345   -0.4812 N.am      1 <0>        -0.5554
     12 C10        -1.7159   10.5694   -0.9755 C.2       1 <0>         0.5230
     13 O1         -2.8445   10.9270   -1.2392 O.2       1 <0>        -0.5126
     14 C11        -0.5568   11.5057   -1.2005 C.3       1 <0>        -0.1827
     15 S1         -5.1667    4.7974    0.5584 S.o2      1 <0>         2.6942
     16 O2         -6.4962    5.2947    0.6247 O.2       1 <0>        -0.9537
     17 O3         -4.5654    4.0851    1.6309 O.2       1 <0>        -0.9499
     18 N2         -5.0978    3.8056   -0.7660 N.pl3     1 <0>        -1.0680
     19 C12        -3.8823    3.2202   -1.1396 C.ar      1 <0>         0.0829
     20 C13        -3.3682    2.1594   -0.4058 C.ar      1 <0>        -0.0380
     21 C14        -2.1680    1.5816   -0.7741 C.ar      1 <0>        -0.1093
     22 C15        -1.4762    2.0618   -1.8789 C.ar      1 <0>         0.2623
     23 C16        -1.9884    3.1262   -2.6099 C.ar      1 <0>        -0.1115
     24 C17        -3.1913    3.7002   -2.2442 C.ar      1 <0>        -0.0429
     25 Cl1        -1.1206    3.7314   -3.9863 Cl        1 <0>        -0.0558
     26 N3         -0.2588    1.4764   -2.2524 N.pl3     1 <0>        -0.8813
     27 Cl2        -1.5248    0.2561    0.1440 Cl        1 <0>        -0.0515
     28 H2          1.7513    8.4090   -0.9131 H         1 <0>         0.0826
     29 H3          0.9059    9.8248   -1.6254 H         1 <0>         0.0757
     30 H4          0.3763    8.1596   -2.0418 H         1 <0>         0.0667
     31 H5          0.1153    6.6725   -0.1870 H         1 <0>         0.0988
     32 H6         -0.1736    7.2871    1.4760 H         1 <0>         0.0974
     33 H7         -2.3523    5.2058    0.9090 H         1 <0>         0.1400
     34 H8         -5.7239    7.4007   -0.5016 H         1 <0>         0.1473
     35 H9         -4.2811    9.3316   -0.9638 H         1 <0>         0.1484
     36 H10        -0.9285   12.4587   -1.6050 H         1 <0>         0.1015
     37 H11         0.1465   11.0534   -1.9152 H         1 <0>         0.1039
     38 H12        -0.0424   11.6885   -0.2455 H         1 <0>         0.0957
     39 H13        -6.0071    3.6068   -1.3522 H         1 <0>         0.4523
     40 H14        -3.9061    1.7861    0.4531 H         1 <0>         0.1510
     41 H15        -3.5916    4.5251   -2.8149 H         1 <0>         0.1432
     42 H16         0.2889    1.8568   -3.1273 H         1 <0>         0.4257
     43 H17         0.1490    0.6366   -1.6707 H         1 <0>         0.4268
@<TRIPOS>BOND
     1    1    2 1
     2    1   28 1
     3    1   29 1
     4    1   30 1
     5    2    3 1
     6    2   11 1
     7    2    4 1
     8    4    5 1
     9    4   31 1
    10    4   32 1
    11    5   10 ar
    12    5    6 ar
    13    6    7 ar
    14    6   33 1
    15    7    8 ar
    16    7   15 1
    17    8    9 ar
    18    8   34 1
    19    9   10 ar
    20    9   35 1
    21   10   11 1
    22   11   12 am
    23   12   13 2
    24   12   14 1
    25   14   36 1
    26   14   37 1
    27   14   38 1
    28   15   16 2
    29   15   17 2
    30   15   18 1
    31   18   19 1
    32   18   39 1
    33   19   24 ar
    34   19   20 ar
    35   20   21 ar
    36   20   40 1
    37   21   22 ar
    38   21   27 1
    39   22   23 ar
    40   22   26 1
    41   23   24 ar
    42   23   25 1
    43   24   41 1
    44   26   42 1
    45   26   43 1
@<TRIPOS>MOLECULE
ZINC40824483
   49    52     0     0     0
SMALL
USER_CHARGES

@<TRIPOS>ATOM
      1 C1          0.3002    1.2598   -0.2468 C.3       1 <0>        -0.1014
      2 C2          0.0717   -0.2274   -0.1628 C.2       1 <0>        -0.0249
      3 C3         -0.0164   -1.1259   -1.2330 C.2       1 <0>        -0.1672
      4 C4         -0.2302   -2.3771   -0.7050 C.2       1 <0>         0.0769
      5 O1         -0.2695   -2.2630    0.6206 O.3       1 <0>        -0.1362
      6 C5         -0.0851   -0.9707    0.9741 C.2       1 <0>        -0.0961
      7 C6         -0.0607   -0.4529    2.3464 C.2       1 <0>         0.6166
      8 O2         -0.0132    0.7472    2.5432 O.2       1 <0>        -0.4929
      9 N1         -0.0908   -1.3061    3.3892 N.am      1 <0>        -0.5438
     10 C7         -0.1803   -0.9277    4.7314 C.ar      1 <0>         0.1418
     11 C8         -0.2552    0.3513    5.2873 C.ar      1 <0>        -0.1282
     12 C9         -0.3374    0.5114    6.6538 C.ar      1 <0>        -0.0938
     13 C10        -0.3463   -0.5939    7.4850 C.ar      1 <0>        -0.1361
     14 C11        -0.2729   -1.8631    6.9423 C.ar      1 <0>        -0.0799
     15 C12        -0.1904   -2.0286    5.5730 C.ar      1 <0>        -0.1332
     16 C13        -0.0992   -3.2801    4.7291 C.3       1 <0>        -0.0831
     17 C14        -0.0408   -2.7667    3.2811 C.3       1 <0>         0.1289
     18 H1         -0.8956   -3.1333    2.7128 H         1 <0>         0.0968
     19 C15         1.2664   -3.2053    2.6179 C.3       1 <0>        -0.1646
     20 C16        -0.3846   -3.6115   -1.5568 C.3       1 <0>        -0.0480
     21 C17        -0.7786   -3.2023   -2.9786 C.3       1 <0>        -0.1099
     22 C18         0.2021   -2.1640   -3.5336 C.3       1 <0>        -0.1254
     23 C19         0.0854   -0.9012   -2.6924 C.2       1 <0>         0.2117
     24 N2          0.0761    0.2855   -3.2162 N.2       1 <0>        -0.2811
     25 N3          0.1754    0.4389   -4.6053 N.pl3     1 <0>        -0.5380
     26 C20         0.1658    1.6719   -5.1495 C.2       1 <0>         0.6045
     27 S1          0.2872    1.8594   -6.8469 S.2       1 <0>        -0.6192
     28 N4          0.0606    2.7573   -4.3574 N.pl3     1 <0>        -0.7837
     29 H2          1.3706    1.4646   -0.2270 H         1 <0>         0.0790
     30 H3         -0.1256    1.6409   -1.1749 H         1 <0>         0.0776
     31 H4         -0.1792    1.7495    0.6009 H         1 <0>         0.0920
     32 H5         -0.2483    1.2186    4.6437 H         1 <0>         0.1391
     33 H6         -0.3947    1.5034    7.0769 H         1 <0>         0.1298
     34 H7         -0.4101   -0.4657    8.5555 H         1 <0>         0.1285
     35 H8         -0.2797   -2.7272    7.5900 H         1 <0>         0.1271
     36 H9          0.8034   -3.8396    4.9748 H         1 <0>         0.0960
     37 H10        -0.9835   -3.9010    4.8730 H         1 <0>         0.0935
     38 H11         2.0997   -3.0097    3.2927 H         1 <0>         0.0646
     39 H12         1.2212   -4.2715    2.3959 H         1 <0>         0.0792
     40 H13         1.4095   -2.6473    1.6926 H         1 <0>         0.0655
     41 H14         0.5597   -4.1552   -1.5835 H         1 <0>         0.1071
     42 H15        -1.1602   -4.2501   -1.1342 H         1 <0>         0.1036
     43 H16        -0.7711   -4.0829   -3.6209 H         1 <0>         0.0989
     44 H17        -1.7822   -2.7771   -2.9649 H         1 <0>         0.0781
     45 H18         1.2193   -2.5515   -3.4758 H         1 <0>         0.1063
     46 H19        -0.0480   -1.9395   -4.5704 H         1 <0>         0.0855
     47 H20         0.2511   -0.3422   -5.1753 H         1 <0>         0.4174
     48 H21        -0.0082    2.6511   -3.3957 H         1 <0>         0.4080
     49 H22         0.0537    3.6447   -4.7491 H         1 <0>         0.4327
@<TRIPOS>BOND
     1    1    2 1
     2    1   29 1
     3    1   30 1
     4    1   31 1
     5    2    6 2
     6    2    3 1
     7    3   23 1
     8    3    4 2
     9    4    5 1
    10    4   20 1
    11    5    6 1
    12    6    7 1
    13    7    8 2
    14    7    9 am
    15    9   17 1
    16    9   10 1
    17   10   15 ar
    18   10   11 ar
    19   11   12 ar
    20   11   32 1
    21   12   13 ar
    22   12   33 1
    23   13   14 ar
    24   13   34 1
    25   14   15 ar
    26   14   35 1
    27   15   16 1
    28   16   17 1
    29   16   36 1
    30   16   37 1
    31   17   18 1
    32   17   19 1
    33   19   38 1
    34   19   39 1
    35   19   40 1
    36   20   21 1
    37   20   41 1
    38   20   42 1
    39   21   22 1
    40   21   43 1
    41   21   44 1
    42   22   23 1
    43   22   45 1
    44   22   46 1
    45   23   24 2
    46   24   25 1
    47   25   26 1
    48   25   47 1
    49   26   27 2
    50   26   28 1
    51   28   48 1
    52   28   49 1
@<TRIPOS>MOLECULE
ZINC04649785
   40    42     0     0     0
SMALL
USER_CHARGES

@<TRIPOS>ATOM
      1 C1         -0.1606    1.4925    0.2053 C.3       1 <0>        -0.1842
      2 C2         -0.0920   -0.0327    0.1056 C.3       1 <0>         0.1542
      3 C3         -1.5126   -0.6104    0.1223 C.3       1 <0>        -0.0930
      4 C4         -1.4154   -2.1081    0.2732 C.2       1 <0>         0.1364
      5 C5         -0.3009   -2.7599    0.6912 C.2       1 <0>        -0.2384
      6 C6         -0.5817   -4.1284    0.7044 C.2       1 <0>         0.2786
      7 N1         -1.8236   -4.2909    0.3091 N.2       1 <0>        -0.3029
      8 N2         -2.3658   -3.0268    0.0333 N.pl3     1 <0>        -0.4521
      9 H1         -3.2676   -2.8477   -0.2759 H         1 <0>         0.4428
     10 O1          0.2794   -5.1180    1.0629 O.3       1 <0>        -0.4557
     11 C7          0.9897   -2.0752    1.0660 C.3       1 <0>         0.0569
     12 H2          1.7134   -2.1887    0.2589 H         1 <0>         0.1141
     13 C8          0.6991   -0.5866    1.2936 C.3       1 <0>        -0.0622
     14 H3          1.6393   -0.0434    1.3889 H         1 <0>         0.1169
     15 C9         -0.1073   -0.4197    2.5557 C.2       1 <0>         0.4709
     16 O2         -1.1388   -1.0323    2.6990 O.2       1 <0>        -0.4879
     17 O3          0.3204    0.4096    3.5207 O.3       1 <0>        -0.3471
     18 C10        -0.4939    0.5191    4.6899 C.3       1 <0>         0.0327
     19 C11         1.5394   -2.6849    2.3298 C.ar      1 <0>        -0.0664
     20 C12         2.9034   -2.8521    2.4799 C.ar      1 <0>        -0.0983
     21 C13         3.4080   -3.4109    3.6390 C.ar      1 <0>        -0.0864
     22 C14         2.5479   -3.8028    4.6490 C.ar      1 <0>        -0.0888
     23 C15         1.1831   -3.6353    4.4984 C.ar      1 <0>        -0.0921
     24 C16         0.6798   -3.0716    3.3411 C.ar      1 <0>        -0.1192
     25 Br1         3.2376   -4.5679    6.2348 Br        1 <0>        -0.0505
     26 O4          0.5576   -0.4015   -1.1126 O.3       1 <0>        -0.5415
     27 H4          0.8489    1.9032    0.1928 H         1 <0>         0.0792
     28 H5         -0.7239    1.8869   -0.6404 H         1 <0>         0.0720
     29 H6         -0.6559    1.7739    1.1346 H         1 <0>         0.0675
     30 H7         -2.0691   -0.1923    0.9611 H         1 <0>         0.1058
     31 H8         -2.0186   -0.3676   -0.8121 H         1 <0>         0.0910
     32 H9          0.2539   -5.3399    2.0037 H         1 <0>         0.3938
     33 H10        -1.4837    0.8803    4.4108 H         1 <0>         0.0610
     34 H11        -0.5840   -0.4588    5.1628 H         1 <0>         0.0616
     35 H12        -0.0350    1.2194    5.3879 H         1 <0>         0.1034
     36 H13         3.5748   -2.5464    1.6912 H         1 <0>         0.1355
     37 H14         4.4736   -3.5418    3.7560 H         1 <0>         0.1349
     38 H15         0.5112   -3.9411    5.2867 H         1 <0>         0.1309
     39 H16        -0.3855   -2.9370    3.2251 H         1 <0>         0.1412
     40 H17         0.1104   -0.0833   -1.9088 H         1 <0>         0.3852
@<TRIPOS>BOND
     1    1    2 1
     2    1   27 1
     3    1   28 1
     4    1   29 1
     5    2   13 1
     6    2    3 1
     7    2   26 1
     8    3    4 1
     9    3   30 1
    10    3   31 1
    11    4    8 1
    12    4    5 2
    13    5    6 1
    14    5   11 1
    15    6    7 2
    16    6   10 1
    17    7    8 1
    18    8    9 1
    19   10   32 1
    20   11   12 1
    21   11   13 1
    22   11   19 1
    23   13   14 1
    24   13   15 1
    25   15   16 2
    26   15   17 1
    27   17   18 1
    28   18   33 1
    29   18   34 1
    30   18   35 1
    31   19   24 ar
    32   19   20 ar
    33   20   21 ar
    34   20   36 1
    35   21   22 ar
    36   21   37 1
    37   22   23 ar
    38   22   25 1
    39   23   24 ar
    40   23   38 1
    41   24   39 1
    42   26   40 1
@<TRIPOS>MOLECULE
ZINC63773308
   48    50     0     0     0
SMALL
USER_CHARGES

@<TRIPOS>ATOM
      1 C1         -0.4710    1.3919   -0.4439 C.3       1 <0>        -0.1435
      2 C2         -0.3923   -0.1329   -0.3455 C.3       1 <0>        -0.0268
      3 C3         -1.7952   -0.6966   -0.1286 C.3       1 <0>        -0.1091
      4 C4         -1.6722   -2.1926    0.1840 C.3       1 <0>        -0.1367
      5 C5         -1.0481   -2.3451    1.5697 C.3       1 <0>         0.1970
      6 C6          0.2137   -1.5292    1.6748 C.ar      1 <0>        -0.0949
      7 C7          0.5130   -0.5107    0.7976 C.ar      1 <0>        -0.0512
      8 C8          1.6910    0.2077    0.9542 C.ar      1 <0>        -0.1211
      9 C9          2.5649   -0.0930    1.9788 C.ar      1 <0>        -0.1109
     10 C10         2.2663   -1.1178    2.8569 C.ar      1 <0>        -0.1233
     11 C11         1.0954   -1.8315    2.7042 C.ar      1 <0>        -0.1013
     12 N1         -0.7319   -3.7562    1.8045 N.pl3     1 <0>        -1.1084
     13 S1         -1.5260   -4.5965    2.9901 S.o2      1 <0>         2.6877
     14 O1         -1.0189   -5.9235    2.9565 O.2       1 <0>        -0.9457
     15 O2         -1.4774   -3.7918    4.1603 O.2       1 <0>        -0.9452
     16 C12        -3.2200   -4.6926    2.5150 C.ar      1 <0>        -0.6989
     17 C13        -4.1039   -3.7026    2.9025 C.ar      1 <0>         0.0343
     18 C14        -5.4327   -3.7780    2.5298 C.ar      1 <0>        -0.1538
     19 C15        -5.8779   -4.8432    1.7691 C.ar      1 <0>         0.0361
     20 C16        -4.9942   -5.8324    1.3810 C.ar      1 <0>        -0.6961
     21 C17        -3.6641   -5.7548    1.7501 C.ar      1 <0>         0.0819
     22 S2         -5.5618   -7.1901    0.4119 S.o2      1 <0>         2.7001
     23 O3         -4.6542   -8.2595    0.6402 O.2       1 <0>        -0.9533
     24 O4         -6.9564   -7.3091    0.6571 O.2       1 <0>        -0.9564
     25 N2         -5.3958   -6.7598   -1.1785 N.pl3     1 <0>        -1.2484
     26 C18         0.1799   -0.6936   -1.6489 C.3       1 <0>        -0.1403
     27 H1          0.5259    1.7967   -0.6184 H         1 <0>         0.0604
     28 H2         -1.1255    1.6694   -1.2702 H         1 <0>         0.0604
     29 H3         -0.8695    1.7960    0.4867 H         1 <0>         0.0583
     30 H4         -2.2713   -0.1847    0.7077 H         1 <0>         0.0702
     31 H5         -2.3901   -0.5579   -1.0313 H         1 <0>         0.0761
     32 H6         -2.6605   -2.6523    0.1739 H         1 <0>         0.0727
     33 H7         -1.0361   -2.6721   -0.5600 H         1 <0>         0.0824
     34 H8         -1.7589   -2.0064    2.3234 H         1 <0>         0.0985
     35 H9          1.9254    1.0082    0.2681 H         1 <0>         0.1243
     36 H10         3.4791    0.4702    2.0940 H         1 <0>         0.1231
     37 H11         2.9474   -1.3593    3.6595 H         1 <0>         0.1239
     38 H12         0.8627   -2.6320    3.3909 H         1 <0>         0.1213
     39 H13        -0.0574   -4.1983    1.2655 H         1 <0>         0.4240
     40 H14        -3.7561   -2.8706    3.4967 H         1 <0>         0.1508
     41 H15        -6.1233   -3.0050    2.8331 H         1 <0>         0.1487
     42 H16        -6.9164   -4.9024    1.4785 H         1 <0>         0.1541
     43 H17        -2.9727   -6.5258    1.4436 H         1 <0>         0.1607
     44 H18        -5.0379   -5.8886   -1.4105 H         1 <0>         0.4169
     45 H19        -5.6565   -7.3790   -1.8782 H         1 <0>         0.4241
     46 H20         1.1775   -0.2861   -1.8127 H         1 <0>         0.0579
     47 H21         0.2376   -1.7801   -1.5827 H         1 <0>         0.0587
     48 H22        -0.4677   -0.4141   -2.4800 H         1 <0>         0.0606
@<TRIPOS>BOND
     1    1    2 1
     2    1   27 1
     3    1   28 1
     4    1   29 1
     5    2    7 1
     6    2    3 1
     7    2   26 1
     8    3    4 1
     9    3   30 1
    10    3   31 1
    11    4    5 1
    12    4   32 1
    13    4   33 1
    14    5    6 1
    15    5   12 1
    16    5   34 1
    17    6   11 ar
    18    6    7 ar
    19    7    8 ar
    20    8    9 ar
    21    8   35 1
    22    9   10 ar
    23    9   36 1
    24   10   11 ar
    25   10   37 1
    26   11   38 1
    27   12   13 1
    28   12   39 1
    29   13   14 2
    30   13   15 2
    31   13   16 1
    32   16   21 ar
    33   16   17 ar
    34   17   18 ar
    35   17   40 1
    36   18   19 ar
    37   18   41 1
    38   19   20 ar
    39   19   42 1
    40   20   21 ar
    41   20   22 1
    42   21   43 1
    43   22   23 2
    44   22   24 2
    45   22   25 1
    46   25   44 1
    47   25   45 1
    48   26   46 1
    49   26   47 1
    50   26   48 1
@<TRIPOS>MOLECULE
ZINC04386415
   45    48     0     0     0
SMALL
USER_CHARGES
ethyl amino-(4-chlorophenyl)-oxo-BLAHcarboxylate
@<TRIPOS>ATOM
      1 C1          2.4854   -9.4000   -0.7378 C.3       1 <0>        -0.1520
      2 C2          1.9735   -8.4902    0.3808 C.3       1 <0>         0.0558
      3 O1          1.8920   -7.1463   -0.0980 O.3       1 <0>        -0.3482
      4 C3          1.4543   -6.2108    0.7723 C.2       1 <0>         0.5416
      5 O2          1.1502   -6.5301    1.9078 O.2       1 <0>        -0.4966
      6 C4          1.3498   -4.8712    0.3685 C.2       1 <0>        -0.3566
      7 C5          2.4668   -4.1010    0.3108 C.2       1 <0>         0.4231
      8 O3          2.4125   -2.8137   -0.0707 O.3       1 <0>        -0.2350
      9 C6          1.2413   -2.1477   -0.0324 C.2       1 <0>         0.2131
     10 C7          1.2331   -0.6778   -0.0335 C.ar      1 <0>        -0.1217
     11 C8          2.4237    0.0516   -0.0763 C.ar      1 <0>        -0.0431
     12 C9          2.3814    1.4177   -0.0779 C.ar      1 <0>        -0.1495
     13 C10         1.1659    2.0862   -0.0365 C.ar      1 <0>        -0.0515
     14 C11        -0.0205    1.3858    0.0062 C.ar      1 <0>        -0.1622
     15 C12        -0.0004   -0.0050    0.0080 C.ar      1 <0>         0.2070
     16 N1         -1.1714   -0.7333    0.0496 N.am      1 <0>        -0.6356
     17 H1         -2.0480   -0.2531    0.0808 H         1 <0>         0.4273
     18 C13        -1.1540   -2.0764    0.0489 C.2       1 <0>         0.5596
     19 O4         -2.2120   -2.6820    0.0853 O.2       1 <0>        -0.5175
     20 C14         0.0488   -2.8050    0.0070 C.2       1 <0>        -0.2348
     21 C15         0.0033   -4.3101    0.0057 C.3       1 <0>         0.1081
     22 H2         -0.7346   -4.6496    0.7326 H         1 <0>         0.1047
     23 C16        -0.3871   -4.7965   -1.3662 C.ar      1 <0>        -0.0677
     24 C17         0.3954   -4.4784   -2.4606 C.ar      1 <0>        -0.0889
     25 C18         0.0409   -4.9290   -3.7182 C.ar      1 <0>        -0.1099
     26 C19        -1.1033   -5.6890   -3.8834 C.ar      1 <0>        -0.0333
     27 C20        -1.8890   -6.0023   -2.7886 C.ar      1 <0>        -0.1087
     28 C21        -1.5305   -5.5559   -1.5306 C.ar      1 <0>        -0.0843
     29 Cl1        -1.5533   -6.2489   -5.4638 Cl        1 <0>        -0.0728
     30 N2          3.6752   -4.6482    0.6493 N.pl3     1 <0>        -0.8281
     31 H3          1.7996   -9.3567   -1.5839 H         1 <0>         0.0675
     32 H4          3.4738   -9.0663   -1.0538 H         1 <0>         0.0653
     33 H5          2.5475  -10.4251   -0.3726 H         1 <0>         0.0793
     34 H6          2.6593   -8.5336    1.2269 H         1 <0>         0.0660
     35 H7          0.9851   -8.8239    0.6968 H         1 <0>         0.0683
     36 H8          3.3734   -0.4617   -0.1085 H         1 <0>         0.1396
     37 H9          3.3018    1.9818   -0.1113 H         1 <0>         0.1356
     38 H10         1.1493    3.1660   -0.0381 H         1 <0>         0.1378
     39 H11        -0.9618    1.9146    0.0335 H         1 <0>         0.1420
     40 H12         1.2862   -3.8814   -2.3322 H         1 <0>         0.1205
     41 H13         0.6547   -4.6841   -4.5725 H         1 <0>         0.1318
     42 H14        -2.7825   -6.5952   -2.9169 H         1 <0>         0.1337
     43 H15        -2.1439   -5.8001   -0.6759 H         1 <0>         0.1322
     44 H16         3.7392   -5.5945    0.8528 H         1 <0>         0.4258
     45 H17         4.4675   -4.0897    0.6855 H         1 <0>         0.4125
@<TRIPOS>BOND
     1    1    2 1
     2    1   31 1
     3    1   32 1
     4    1   33 1
     5    2    3 1
     6    2   34 1
     7    2   35 1
     8    3    4 1
     9    4    5 2
    10    4    6 1
    11    6   21 1
    12    6    7 2
    13    7    8 1
    14    7   30 1
    15    8    9 1
    16    9   20 2
    17    9   10 1
    18   10   15 ar
    19   10   11 ar
    20   11   12 ar
    21   11   36 1
    22   12   13 ar
    23   12   37 1
    24   13   14 ar
    25   13   38 1
    26   14   15 ar
    27   14   39 1
    28   15   16 1
    29   16   17 1
    30   16   18 am
    31   18   19 2
    32   18   20 1
    33   20   21 1
    34   21   22 1
    35   21   23 1
    36   23   28 ar
    37   23   24 ar
    38   24   25 ar
    39   24   40 1
    40   25   26 ar
    41   25   41 1
    42   26   27 ar
    43   26   29 1
    44   27   28 ar
    45   27   42 1
    46   28   43 1
    47   30   44 1
    48   30   45 1
@<TRIPOS>MOLECULE
ZINC12659474
   42    44     0     0     0
SMALL
USER_CHARGES
2-bromo-N-[(Z)-2-(2-furyl)-1-[(2-hydroxyphenyl)carbamoyl]vinyl]benzamide
@<TRIPOS>ATOM
      1 C1         -0.7225   -2.4942    9.8547 C.ar      1 <0>        -0.1137
      2 C2         -1.7067   -3.4510   10.0335 C.ar      1 <0>        -0.0859
      3 C3         -2.5494   -3.7888    8.9904 C.ar      1 <0>        -0.0997
      4 C4         -2.4136   -3.1727    7.7619 C.ar      1 <0>        -0.0415
      5 C5         -1.4224   -2.2064    7.5752 C.ar      1 <0>        -0.1098
      6 C6         -0.5720   -1.8747    8.6319 C.ar      1 <0>        -0.0791
      7 C7         -1.2706   -1.5426    6.2639 C.2       1 <0>         0.5561
      8 O1         -2.0665   -1.7679    5.3727 O.2       1 <0>        -0.4746
      9 N1         -0.2500   -0.6874    6.0557 N.am      1 <0>        -0.6587
     10 C8         -0.1641    0.0196    4.8509 C.2       1 <0>         0.0870
     11 C9         -0.1784    1.3793    4.8579 C.2       1 <0>        -0.0423
     12 C10        -0.1732    2.0812    6.0880 C.2       1 <0>        -0.0069
     13 C11        -0.2834    3.4469    6.2448 C.2       1 <0>        -0.1575
     14 C12        -0.2315    3.6961    7.6259 C.2       1 <0>        -0.2135
     15 C13        -0.0950    2.5021    8.2423 C.2       1 <0>        -0.0174
     16 O2         -0.0652    1.5325    7.3158 O.3       1 <0>        -0.1686
     17 C14        -0.0588   -0.7052    3.5822 C.2       1 <0>         0.5507
     18 O3         -0.0460   -1.9227    3.5759 O.2       1 <0>        -0.4860
     19 N2          0.0239   -0.0244    2.4220 N.am      1 <0>        -0.6607
     20 C15         0.0070   -0.7134    1.2033 C.ar      1 <0>         0.1282
     21 C16        -0.5884   -1.9638    1.1192 C.ar      1 <0>        -0.1153
     22 C17        -0.6041   -2.6417   -0.0849 C.ar      1 <0>        -0.1049
     23 C18        -0.0275   -2.0770   -1.2078 C.ar      1 <0>        -0.1214
     24 C19         0.5626   -0.8289   -1.1331 C.ar      1 <0>        -0.1237
     25 C20         0.5878   -0.1451    0.0715 C.ar      1 <0>         0.0713
     26 O4          1.1728    1.0800    0.1477 O.3       1 <0>        -0.4958
     27 Br1        -3.5659   -3.6366    6.3361 Br        1 <0>        -0.0054
     28 H1         -0.0677   -2.2356   10.6737 H         1 <0>         0.1371
     29 H2         -1.8166   -3.9363   10.9920 H         1 <0>         0.1385
     30 H3         -3.3152   -4.5362    9.1367 H         1 <0>         0.1412
     31 H4          0.1995   -1.1319    8.4929 H         1 <0>         0.1329
     32 H5          0.4251   -0.5618    6.7408 H         1 <0>         0.4102
     33 H6         -0.1938    1.9240    3.9255 H         1 <0>         0.1640
     34 H7         -0.3895    4.1808    5.4596 H         1 <0>         0.1577
     35 H8         -0.2899    4.6620    8.1056 H         1 <0>         0.1553
     36 H9         -0.0252    2.3519    9.3095 H         1 <0>         0.2079
     37 H10         0.0950    0.9430    2.4313 H         1 <0>         0.4125
     38 H11        -1.0398   -2.4071    1.9946 H         1 <0>         0.1526
     39 H12        -1.0682   -3.6148   -0.1492 H         1 <0>         0.1294
     40 H13        -0.0425   -2.6103   -2.1468 H         1 <0>         0.1286
     41 H14         1.0078   -0.3887   -2.0132 H         1 <0>         0.1330
     42 H15         2.1126    1.0537    0.3740 H         1 <0>         0.3881
@<TRIPOS>BOND
     1    1    6 ar
     2    1    2 ar
     3    1   28 1
     4    2    3 ar
     5    2   29 1
     6    3    4 ar
     7    3   30 1
     8    4    5 ar
     9    4   27 1
    10    5    6 ar
    11    5    7 1
    12    6   31 1
    13    7    8 2
    14    7    9 am
    15    9   10 1
    16    9   32 1
    17   10   11 2
    18   10   17 1
    19   11   12 1
    20   11   33 1
    21   12   16 1
    22   12   13 2
    23   13   14 1
    24   13   34 1
    25   14   15 2
    26   14   35 1
    27   15   16 1
    28   15   36 1
    29   17   18 2
    30   17   19 am
    31   19   20 1
    32   19   37 1
    33   20   25 ar
    34   20   21 ar
    35   21   22 ar
    36   21   38 1
    37   22   23 ar
    38   22   39 1
    39   23   24 ar
    40   23   40 1
    41   24   25 ar
    42   24   41 1
    43   25   26 1
    44   26   42 1
@<TRIPOS>MOLECULE
ZINC05640655
   45    48     0     0     0
SMALL
USER_CHARGES

@<TRIPOS>ATOM
      1 C1         -0.0184    1.5028    0.0103 C.3       1 <0>        -0.0800
      2 C2          0.0021   -0.0041    0.0020 C.2       1 <0>         0.1269
      3 C3          0.0080   -0.8130   -1.1263 C.2       1 <0>        -0.2701
      4 C4          0.0268   -2.1161   -0.7131 C.2       1 <0>         0.2811
      5 N1          0.0337   -2.1161    0.6295 N.pl3     1 <0>        -0.4449
      6 H1          0.0476   -2.9000    1.2006 H         1 <0>         0.4475
      7 N2          0.0231   -0.7800    1.0597 N.2       1 <0>        -0.2621
      8 O1          0.0338   -3.1590   -1.5801 O.3       1 <0>        -0.2297
      9 C5         -0.2546   -2.8995   -2.8716 C.2       1 <0>         0.4458
     10 C6         -0.2911   -1.6557   -3.3990 C.2       1 <0>        -0.2640
     11 C7         -0.0023   -0.4214   -2.5814 C.3       1 <0>         0.1687
     12 H2         -0.7779    0.3243   -2.7561 H         1 <0>         0.1115
     13 C8          1.3415    0.1419   -2.9658 C.2       1 <0>        -0.1278
     14 C9          1.6459    1.3735   -3.4433 C.2       1 <0>        -0.1311
     15 C10         2.9641    1.6741   -3.7305 C.2       1 <0>        -0.1259
     16 C11         3.9135    0.7284   -3.5262 C.2       1 <0>        -0.1437
     17 S1          2.9467   -0.6369   -2.9032 S.3       1 <0>         0.0547
     18 C12         5.4002    0.8103   -3.7592 C.3       1 <0>        -0.0738
     19 C13         3.3401    3.0327   -4.2634 C.3       1 <0>         0.1202
     20 O2          2.1659    3.8376   -4.3869 O.3       1 <0>        -0.3044
     21 C14         2.3312    5.1022   -4.8575 C.ar      1 <0>         0.1237
     22 C15         3.5968    5.5561   -5.1984 C.ar      1 <0>        -0.1821
     23 C16         3.7633    6.8416   -5.6764 C.ar      1 <0>        -0.1118
     24 C17         2.6678    7.6768   -5.8148 C.ar      1 <0>         0.0590
     25 C18         1.4040    7.2251   -5.4745 C.ar      1 <0>        -0.1119
     26 C19         1.2337    5.9379   -5.0024 C.ar      1 <0>        -0.1221
     27 F1          2.8321    8.9337   -6.2820 F         1 <0>        -0.1404
     28 C20        -0.6150   -1.5041   -4.7856 C.1       1 <0>         0.2701
     29 N3         -0.8720   -1.3838   -5.8856 N.1       1 <0>        -0.4338
     30 N4         -0.5274   -3.9605   -3.6987 N.pl3     1 <0>        -0.8286
     31 H3          1.0042    1.8801    0.0026 H         1 <0>         0.0848
     32 H4         -0.5455    1.8639   -0.8728 H         1 <0>         0.0841
     33 H5         -0.5286    1.8543    0.9071 H         1 <0>         0.0800
     34 H6          0.8700    2.1087   -3.5974 H         1 <0>         0.1423
     35 H7          5.8904    1.1700   -2.8545 H         1 <0>         0.0814
     36 H8          5.7834   -0.1784   -4.0115 H         1 <0>         0.0762
     37 H9          5.6020    1.4986   -4.5799 H         1 <0>         0.0789
     38 H10         4.0384    3.5116   -3.5770 H         1 <0>         0.0755
     39 H11         3.8095    2.9224   -5.2409 H         1 <0>         0.0738
     40 H12         4.4516    4.9051   -5.0899 H         1 <0>         0.1372
     41 H13         4.7486    7.1952   -5.9420 H         1 <0>         0.1384
     42 H14         0.5503    7.8777   -5.5826 H         1 <0>         0.1431
     43 H15         0.2471    5.5843   -4.7416 H         1 <0>         0.1422
     44 H16        -0.5093   -4.8652   -3.3492 H         1 <0>         0.4124
     45 H17        -0.7383   -3.8056   -4.6328 H         1 <0>         0.4288
@<TRIPOS>BOND
     1    1    2 1
     2    1   31 1
     3    1   32 1
     4    1   33 1
     5    2    7 2
     6    2    3 1
     7    3   11 1
     8    3    4 2
     9    4    5 1
    10    4    8 1
    11    5    6 1
    12    5    7 1
    13    8    9 1
    14    9   10 2
    15    9   30 1
    16   10   11 1
    17   10   28 1
    18   11   12 1
    19   11   13 1
    20   13   17 1
    21   13   14 2
    22   14   15 1
    23   14   34 1
    24   15   16 2
    25   15   19 1
    26   16   17 1
    27   16   18 1
    28   18   35 1
    29   18   36 1
    30   18   37 1
    31   19   20 1
    32   19   38 1
    33   19   39 1
    34   20   21 1
    35   21   26 ar
    36   21   22 ar
    37   22   23 ar
    38   22   40 1
    39   23   24 ar
    40   23   41 1
    41   24   25 ar
    42   24   27 1
    43   25   26 ar
    44   25   42 1
    45   26   43 1
    46   28   29 3
    47   30   44 1
    48   30   45 1
@<TRIPOS>MOLECULE
ZINC38705434
   48    51     0     0     0
SMALL
USER_CHARGES

@<TRIPOS>ATOM
      1 C1         -0.1226    1.4898    0.1061 C.3       1 <0>        -0.1185
      2 C2          0.0451   -0.0078    0.0903 C.ar      1 <0>        -0.0532
      3 C3          1.1943   -0.5666   -0.4406 C.ar      1 <0>        -0.1309
      4 C4          1.3561   -1.9372   -0.4591 C.ar      1 <0>        -0.0342
      5 C5          0.3599   -2.7616    0.0581 C.ar      1 <0>        -0.0479
      6 C6         -0.7997   -2.1944    0.5937 C.ar      1 <0>         0.1389
      7 C7         -0.9470   -0.8166    0.6111 C.ar      1 <0>        -0.1541
      8 O1         -1.7768   -2.9909    1.1004 O.3       1 <0>        -0.4882
      9 C8          0.5288   -4.2359    0.0401 C.2       1 <0>         0.1325
     10 C9          0.3503   -5.1032    1.1233 C.2       1 <0>        -0.1645
     11 C10         0.6145   -6.3699    0.6389 C.2       1 <0>        -0.0633
     12 N1          0.9322   -6.2132   -0.6803 N.pl3     1 <0>        -0.3350
     13 H1          1.1660   -6.9336   -1.2864 H         1 <0>         0.4529
     14 N2          0.8691   -4.9700   -1.0010 N.2       1 <0>        -0.2430
     15 C11         0.4433   -7.3327    1.7326 C.2       1 <0>         0.5986
     16 O2          0.6028   -8.5342    1.6313 O.2       1 <0>        -0.5191
     17 N3          0.0849   -6.6984    2.8634 N.am      1 <0>        -0.5892
     18 C12        -0.0016   -5.2604    2.5773 C.3       1 <0>         0.2515
     19 H2         -1.0151   -4.9027    2.7588 H         1 <0>         0.1061
     20 C13         0.9786   -4.5005    3.4332 C.ar      1 <0>        -0.0635
     21 C14         2.3307   -4.7763    3.3467 C.ar      1 <0>        -0.0509
     22 C15         3.2303   -4.0797    4.1315 C.ar      1 <0>        -0.1088
     23 C16         2.7786   -3.1070    5.0037 C.ar      1 <0>        -0.0994
     24 C17         1.4260   -2.8306    5.0907 C.ar      1 <0>        -0.0306
     25 C18         0.5265   -3.5241    4.3004 C.ar      1 <0>        -0.0898
     26 Cl1         0.8580   -1.6092    6.1859 Cl        1 <0>        -0.0730
     27 C19        -0.1751   -7.3329    4.1580 C.3       1 <0>         0.1414
     28 C20         1.1498   -7.5659    4.8870 C.3       1 <0>         0.0547
     29 O3          1.6960   -6.3101    5.2954 O.3       1 <0>        -0.5547
     30 C21         2.6092   -2.5410   -1.0388 C.3       1 <0>        -0.1260
     31 H3          0.2880    1.8916    1.0324 H         1 <0>         0.0751
     32 H4          0.4049    1.9235   -0.7434 H         1 <0>         0.0701
     33 H5         -1.1821    1.7374    0.0408 H         1 <0>         0.0693
     34 H6          1.9672    0.0720   -0.8422 H         1 <0>         0.1287
     35 H7         -1.8397   -0.3747    1.0285 H         1 <0>         0.1326
     36 H8         -1.7234   -3.1183    2.0575 H         1 <0>         0.3830
     37 H9          2.6840   -5.5366    2.6659 H         1 <0>         0.1114
     38 H10         4.2863   -4.2956    4.0634 H         1 <0>         0.1268
     39 H11         3.4816   -2.5633    5.6174 H         1 <0>         0.1290
     40 H12        -0.5293   -3.3057    4.3647 H         1 <0>         0.1268
     41 H13        -0.8115   -6.6839    4.7595 H         1 <0>         0.0986
     42 H14        -0.6759   -8.2882    4.0004 H         1 <0>         0.1018
     43 H15         0.9771   -8.1895    5.7641 H         1 <0>         0.0603
     44 H16         1.8497   -8.0661    4.2176 H         1 <0>         0.0501
     45 H17         2.5383   -6.3816    5.7650 H         1 <0>         0.3747
     46 H18         3.3584   -2.6463   -0.2542 H         1 <0>         0.0701
     47 H19         2.3804   -3.5214   -1.4567 H         1 <0>         0.0827
     48 H20         2.9951   -1.8921   -1.8250 H         1 <0>         0.0702
@<TRIPOS>BOND
     1    1    2 1
     2    1   31 1
     3    1   32 1
     4    1   33 1
     5    2    7 ar
     6    2    3 ar
     7    3    4 ar
     8    3   34 1
     9    4    5 ar
    10    4   30 1
    11    5    6 ar
    12    5    9 1
    13    6    7 ar
    14    6    8 1
    15    7   35 1
    16    8   36 1
    17    9   14 2
    18    9   10 1
    19   10   18 1
    20   10   11 2
    21   11   12 1
    22   11   15 1
    23   12   13 1
    24   12   14 1
    25   15   16 2
    26   15   17 am
    27   17   18 1
    28   17   27 1
    29   18   19 1
    30   18   20 1
    31   20   25 ar
    32   20   21 ar
    33   21   22 ar
    34   21   37 1
    35   22   23 ar
    36   22   38 1
    37   23   24 ar
    38   23   39 1
    39   24   25 ar
    40   24   26 1
    41   25   40 1
    42   27   28 1
    43   27   41 1
    44   27   42 1
    45   28   29 1
    46   28   43 1
    47   28   44 1
    48   29   45 1
    49   30   46 1
    50   30   47 1
    51   30   48 1
@<TRIPOS>MOLECULE
ZINC46011876
   48    50     0     0     0
SMALL
USER_CHARGES

@<TRIPOS>ATOM
      1 C1          0.0146    1.1490    0.7170 C.3       1 <0>        -0.0786
      2 C2         -0.0150   -0.2262    0.1015 C.2       1 <0>         0.0928
      3 C3         -1.1368   -0.9412   -0.2011 C.2       1 <0>        -0.2570
      4 C4         -0.6566   -2.2066   -0.7754 C.2       1 <0>        -0.1900
      5 C5          0.6830   -2.1324   -0.7632 C.2       1 <0>        -0.0305
      6 O1          1.0533   -0.9505   -0.2461 O.3       1 <0>        -0.1722
      7 C6         -2.5371   -0.5313    0.0054 C.2       1 <0>         0.5982
      8 O2         -2.7872    0.5533    0.4958 O.2       1 <0>        -0.5211
      9 N1         -3.5406   -1.3581   -0.3493 N.am      1 <0>        -0.6621
     10 C7         -4.8668   -1.0109   -0.0660 C.ar      1 <0>         0.1381
     11 C8         -5.2520    0.3219   -0.0708 C.ar      1 <0>        -0.1271
     12 C9         -6.5672    0.6623    0.2104 C.ar      1 <0>         0.1783
     13 C10        -7.4951   -0.3309    0.4960 C.ar      1 <0>        -0.1063
     14 C11        -7.1101   -1.6580    0.5009 C.ar      1 <0>        -0.1112
     15 C12        -5.8012   -2.0019    0.2149 C.ar      1 <0>         0.0542
     16 F1         -5.4290   -3.3007    0.2145 F         1 <0>        -0.1375
     17 N2         -6.9590    2.0069    0.2069 N.am      1 <0>        -0.6831
     18 C13        -8.1989    2.3465   -0.1979 C.2       1 <0>         0.7075
     19 O3         -8.9452    1.4985   -0.6476 O.2       1 <0>        -0.5676
     20 N3         -8.6115    3.6261   -0.1042 N.am      1 <0>        -0.7357
     21 C14        -9.9593    3.9952   -0.5441 C.3       1 <0>         0.2036
     22 C15       -10.9529    3.7455    0.5922 C.3       1 <0>        -0.1607
     23 C16        -9.9828    5.4543   -0.9204 C.ar      1 <0>        -0.1059
     24 C17        -9.2849    6.3748   -0.1610 C.ar      1 <0>        -0.0852
     25 C18        -9.3055    7.7131   -0.5053 C.ar      1 <0>        -0.1490
     26 C19       -10.0254    8.1317   -1.6115 C.ar      1 <0>         0.1017
     27 C20       -10.7240    7.2089   -2.3713 C.ar      1 <0>        -0.1482
     28 C21       -10.6977    5.8705   -2.0281 C.ar      1 <0>        -0.0754
     29 F2        -10.0465    9.4398   -1.9488 F         1 <0>        -0.1373
     30 H1          1.0490    1.4703    0.8391 H         1 <0>         0.0799
     31 H2         -0.5090    1.8496    0.0666 H         1 <0>         0.0980
     32 H3         -0.4747    1.1219    1.6906 H         1 <0>         0.0983
     33 H4         -1.2592   -3.0283   -1.1334 H         1 <0>         0.1586
     34 H5          1.3559   -2.8993   -1.1173 H         1 <0>         0.2113
     35 H6         -3.3439   -2.1937   -0.8008 H         1 <0>         0.4157
     36 H7         -4.5293    1.0931   -0.2927 H         1 <0>         0.1565
     37 H8         -8.5189   -0.0656    0.7149 H         1 <0>         0.1476
     38 H9         -7.8335   -2.4284    0.7236 H         1 <0>         0.1448
     39 H10        -6.3379    2.6938    0.4957 H         1 <0>         0.4102
     40 H11        -8.0161    4.3027    0.2546 H         1 <0>         0.3977
     41 H12       -10.2370    3.3925   -1.4088 H         1 <0>         0.1025
     42 H13       -10.9359    2.6901    0.8643 H         1 <0>         0.0688
     43 H14       -10.6752    4.3482    1.4568 H         1 <0>         0.0599
     44 H15       -11.9557    4.0201    0.2648 H         1 <0>         0.0710
     45 H16        -8.7238    6.0481    0.7020 H         1 <0>         0.1310
     46 H17        -8.7605    8.4321    0.0883 H         1 <0>         0.1384
     47 H18       -11.2861    7.5344   -3.2342 H         1 <0>         0.1395
     48 H19       -11.2389    5.1498   -2.6232 H         1 <0>         0.1376
@<TRIPOS>BOND
     1    1    2 1
     2    1   30 1
     3    1   31 1
     4    1   32 1
     5    2    6 1
     6    2    3 2
     7    3    4 1
     8    3    7 1
     9    4    5 2
    10    4   33 1
    11    5    6 1
    12    5   34 1
    13    7    8 2
    14    7    9 am
    15    9   10 1
    16    9   35 1
    17   10   15 ar
    18   10   11 ar
    19   11   12 ar
    20   11   36 1
    21   12   13 ar
    22   12   17 1
    23   13   14 ar
    24   13   37 1
    25   14   15 ar
    26   14   38 1
    27   15   16 1
    28   17   18 am
    29   17   39 1
    30   18   19 2
    31   18   20 am
    32   20   21 1
    33   20   40 1
    34   21   22 1
    35   21   23 1
    36   21   41 1
    37   22   42 1
    38   22   43 1
    39   22   44 1
    40   23   28 ar
    41   23   24 ar
    42   24   25 ar
    43   24   45 1
    44   25   26 ar
    45   25   46 1
    46   26   27 ar
    47   26   29 1
    48   27   28 ar
    49   27   47 1
    50   28   48 1
@<TRIPOS>MOLECULE
ZINC13254733
   44    45     0     0     0
SMALL
USER_CHARGES
1-[2-[N'-(2,4-dimethylbenzoyl)hydrazino]-2-oxo-ethyl]cyclopentane-1-carboxylic acid
@<TRIPOS>ATOM
      1 C1         -5.9634   -1.4867    0.0175 C.3       1 <0>        -0.1185
      2 C2         -4.7306   -0.6373   -0.1557 C.ar      1 <0>        -0.0559
      3 C3         -3.5299   -1.2293   -0.5059 C.ar      1 <0>        -0.1340
      4 C4         -2.3977   -0.4577   -0.6656 C.ar      1 <0>        -0.0753
      5 C5         -2.4653    0.9233   -0.4735 C.ar      1 <0>        -0.1367
      6 C6         -3.6782    1.5134   -0.1153 C.ar      1 <0>        -0.0142
      7 C7         -4.8043    0.7307    0.0365 C.ar      1 <0>        -0.1341
      8 C8         -3.7590    3.0027    0.1001 C.3       1 <0>        -0.1215
      9 C9         -1.2558    1.7565   -0.6430 C.2       1 <0>         0.5562
     10 O1         -1.3402    2.9680   -0.5915 O.2       1 <0>        -0.5394
     11 N1         -0.0596    1.1728   -0.8547 N.am      1 <0>        -0.5135
     12 N2          1.0856    1.9625   -1.0211 N.am      1 <0>        -0.5342
     13 C10         2.2809    1.3789   -1.2383 C.2       1 <0>         0.5144
     14 O2          2.3651    0.1701   -1.2898 O.2       1 <0>        -0.5044
     15 C11         3.5127    2.2284   -1.4173 C.3       1 <0>        -0.0980
     16 C12         4.7449    1.3264   -1.5121 C.3       1 <0>        -0.0908
     17 C13         6.0155    2.1839   -1.6851 C.3       1 <0>        -0.1010
     18 C14         6.8978    1.3623   -2.6587 C.3       1 <0>        -0.1215
     19 C15         5.8603    0.7719   -3.6457 C.3       1 <0>        -0.1230
     20 C16         4.6463    0.4286   -2.7579 C.3       1 <0>        -0.1033
     21 C17         4.8596    0.4778   -0.2721 C.2       1 <0>         0.4827
     22 O3          4.9418   -0.7239   -0.3678 O.co2     1 <0>        -0.6225
     23 H1         -6.0333   -1.8185    1.0534 H         1 <0>         0.0747
     24 H2         -6.8468   -0.9010   -0.2368 H         1 <0>         0.0684
     25 H3         -5.9017   -2.3547   -0.6388 H         1 <0>         0.0693
     26 H4         -3.4790   -2.2979   -0.6542 H         1 <0>         0.1299
     27 H5         -1.4610   -0.9210   -0.9382 H         1 <0>         0.1292
     28 H6         -5.7444    1.1864    0.3104 H         1 <0>         0.1290
     29 H7         -3.8877    3.5022   -0.8601 H         1 <0>         0.0759
     30 H8         -4.6075    3.2310    0.7451 H         1 <0>         0.0572
     31 H9         -2.8402    3.3520    0.5712 H         1 <0>         0.0961
     32 H10         0.0078    0.2060   -0.8959 H         1 <0>         0.4293
     33 H11         1.0182    2.9293   -0.9800 H         1 <0>         0.4273
     34 H12         3.4202    2.8145   -2.3317 H         1 <0>         0.0865
     35 H13         3.6184    2.8994   -0.5648 H         1 <0>         0.1009
     36 H14         5.7664    3.1516   -2.1205 H         1 <0>         0.0570
     37 H15         6.5212    2.3139   -0.7282 H         1 <0>         0.0710
     38 H16         7.4214    0.5676   -2.1274 H         1 <0>         0.0653
     39 H17         7.6049    2.0066   -3.1812 H         1 <0>         0.0566
     40 H18         6.2533   -0.1279   -4.1192 H         1 <0>         0.0558
     41 H19         5.5858    1.5112   -4.3981 H         1 <0>         0.0532
     42 H20         4.6823   -0.6209   -2.4657 H         1 <0>         0.0897
     43 H21         3.7206    0.6355   -3.2950 H         1 <0>         0.0447
     44 O4          4.8705    1.0569    0.9388 O.co2     1 <0>        -0.7783
@<TRIPOS>BOND
     1    1    2 1
     2    1   23 1
     3    1   24 1
     4    1   25 1
     5    2    7 ar
     6    2    3 ar
     7    3    4 ar
     8    3   26 1
     9    4    5 ar
    10    4   27 1
    11    5    6 ar
    12    5    9 1
    13    6    7 ar
    14    6    8 1
    15    7   28 1
    16    8   29 1
    17    8   30 1
    18    8   31 1
    19    9   10 2
    20    9   11 am
    21   11   12 1
    22   11   32 1
    23   12   13 am
    24   12   33 1
    25   13   14 2
    26   13   15 1
    27   15   16 1
    28   15   34 1
    29   15   35 1
    30   16   20 1
    31   16   17 1
    32   16   21 1
    33   17   18 1
    34   17   36 1
    35   17   37 1
    36   18   19 1
    37   18   38 1
    38   18   39 1
    39   19   20 1
    40   19   40 1
    41   19   41 1
    42   20   42 1
    43   20   43 1
    44   21   22 2
    45   21   44 1
@<TRIPOS>MOLECULE
ZINC35694541
   33    34     0     0     0
SMALL
USER_CHARGES

@<TRIPOS>ATOM
      1 C1         -0.0187    1.5258    0.0104 C.3       1 <0>        -0.1656
      2 C2          0.0021   -0.0041    0.0020 C.3       1 <0>         0.2132
      3 H1          0.5293   -0.3651    0.8851 H         1 <0>         0.0287
      4 C3         -1.4117   -0.5257    0.0127 C.ar      1 <0>         0.1794
      5 C4         -1.8219   -1.4079   -0.9692 C.ar      1 <0>        -0.1250
      6 C5         -3.1245   -1.8817   -0.9503 C.ar      1 <0>        -0.0986
      7 C6         -3.9697   -1.4487    0.0601 C.ar      1 <0>        -0.2001
      8 C7         -3.4890   -0.5654    1.0078 C.ar      1 <0>         0.0821
      9 N1         -2.2416   -0.1395    0.9617 N.ar      1 <0>        -0.4968
     10 N2          0.6878   -0.4765   -1.2033 N.2       1 <0>        -1.1612
     11 S1          2.2651   -0.0535   -1.4782 S.o2      1 <0>         2.5836
     12 O1          2.2779    1.3517   -1.6887 O.2       1 <0>        -1.0463
     13 O2          3.0363   -0.6786   -0.4614 O.2       1 <0>        -1.0516
     14 C8          2.7454   -0.7955   -3.0024 C.ar      1 <0>        -0.5474
     15 C9          3.2933   -2.0653   -3.0099 C.ar      1 <0>        -0.0734
     16 C10         3.6721   -2.6514   -4.2036 C.ar      1 <0>        -0.0905
     17 C11         3.5041   -1.9692   -5.3938 C.ar      1 <0>        -0.0843
     18 C12         2.9534   -0.6931   -5.3893 C.ar      1 <0>         0.2006
     19 C13         2.5690   -0.1104   -4.1887 C.ar      1 <0>        -0.0887
     20 N3          2.7819   -0.0000   -6.5907 N.pl3     1 <0>        -0.8761
     21 Cl1         3.9809   -2.7049   -6.8921 Cl        1 <0>        -0.0838
     22 H2          1.0039    1.9031    0.0027 H         1 <0>         0.0561
     23 H3         -0.5459    1.8868   -0.8726 H         1 <0>         0.0486
     24 H4         -0.5289    1.8773    0.9072 H         1 <0>         0.0422
     25 H5         -1.1362   -1.7237   -1.7416 H         1 <0>         0.1579
     26 H6         -3.4728   -2.5716   -1.7048 H         1 <0>         0.1212
     27 H7         -4.9910   -1.7970    0.1056 H         1 <0>         0.1188
     28 H8         -4.1409   -0.2234    1.7980 H         1 <0>         0.1419
     29 H9          3.4258   -2.6002   -2.0811 H         1 <0>         0.1413
     30 H10         4.0999   -3.6430   -4.2058 H         1 <0>         0.1328
     31 H11         2.1370    0.8794   -4.1821 H         1 <0>         0.1424
     32 H12         3.0474   -0.4095   -7.4290 H         1 <0>         0.3972
     33 H13         2.3974    0.8905   -6.5863 H         1 <0>         0.4014
@<TRIPOS>BOND
     1    1    2 1
     2    1   22 1
     3    1   23 1
     4    1   24 1
     5    2    3 1
     6    2    4 1
     7    2   10 1
     8    4    9 ar
     9    4    5 ar
    10    5    6 ar
    11    5   25 1
    12    6    7 ar
    13    6   26 1
    14    7    8 ar
    15    7   27 1
    16    8    9 ar
    17    8   28 1
    18   10   11 1
    19   11   12 2
    20   11   13 2
    21   11   14 1
    22   14   19 ar
    23   14   15 ar
    24   15   16 ar
    25   15   29 1
    26   16   17 ar
    27   16   30 1
    28   17   18 ar
    29   17   21 1
    30   18   19 ar
    31   18   20 1
    32   19   31 1
    33   20   32 1
    34   20   33 1
@<TRIPOS>MOLECULE
ZINC40547432
   35    35     0     0     0
SMALL
USER_CHARGES

@<TRIPOS>ATOM
      1 C1         -0.2820    2.3966    0.6540 C.3       1 <0>        -0.1611
      2 C2         -0.1874    0.9019    0.3414 C.3       1 <0>         0.1814
      3 H1         -1.1899    0.4769    0.2918 H         1 <0>         0.0871
      4 C3          0.5169    0.7055   -1.0026 C.3       1 <0>        -0.1968
      5 C4          0.5013   -0.7562   -1.3691 C.2       1 <0>         0.4875
      6 O1         -0.0244   -1.5658   -0.6243 O.co2     1 <0>        -0.6842
      7 O2          1.0144   -1.1291   -2.4103 O.co2     1 <0>        -0.7093
      8 N1          0.5762    0.2299    1.3956 N.am      1 <0>        -0.7103
      9 C5         -0.0431   -0.1765    2.5216 C.2       1 <0>         0.7150
     10 O3         -1.2356    0.0145    2.6624 O.2       1 <0>        -0.5964
     11 N2          0.6594   -0.7948    3.4915 N.am      1 <0>        -0.7492
     12 C6         -0.0137   -1.2366    4.7154 C.3       1 <0>         0.1990
     13 H2         -0.8237   -0.5472    4.9536 H         1 <0>         0.1081
     14 C7         -0.5842   -2.6406    4.5052 C.3       1 <0>        -0.1585
     15 C8          0.9756   -1.2612    5.8519 C.ar      1 <0>        -0.0684
     16 C9          2.3197   -1.4561    5.5940 C.ar      1 <0>        -0.0903
     17 C10         3.2275   -1.4789    6.6358 C.ar      1 <0>        -0.0986
     18 C11         2.7916   -1.3061    7.9377 C.ar      1 <0>        -0.0294
     19 C12         1.4470   -1.1106    8.1963 C.ar      1 <0>        -0.0986
     20 C13         0.5392   -1.0831    7.1525 C.ar      1 <0>        -0.0186
     21 Cl1        -1.1478   -0.8318    7.4756 Cl        1 <0>        -0.0472
     22 Cl2         3.9320   -1.3353    9.2462 Cl        1 <0>        -0.0609
     23 H3          0.7205    2.8216    0.7036 H         1 <0>         0.0479
     24 H4         -0.8502    2.8966   -0.1304 H         1 <0>         0.0591
     25 H5         -0.7838    2.5365    1.6115 H         1 <0>         0.0536
     26 H6         -0.0015    1.2784   -1.7716 H         1 <0>         0.0722
     27 H7          1.5482    1.0500   -0.9261 H         1 <0>         0.0598
     28 H8          1.5276    0.0774    1.2833 H         1 <0>         0.3887
     29 H9          1.6108   -0.9472    3.3792 H         1 <0>         0.3904
     30 H10         0.2257   -3.3300    4.2670 H         1 <0>         0.0588
     31 H11        -1.0851   -2.9693    5.4158 H         1 <0>         0.0636
     32 H12        -1.2998   -2.6227    3.6832 H         1 <0>         0.0759
     33 H13         2.6604   -1.5910    4.5781 H         1 <0>         0.1426
     34 H14         4.2773   -1.6319    6.4338 H         1 <0>         0.1421
     35 H15         1.1063   -0.9757    9.2122 H         1 <0>         0.1451
@<TRIPOS>BOND
     1    1    2 1
     2    1   23 1
     3    1   24 1
     4    1   25 1
     5    2    3 1
     6    2    4 1
     7    2    8 1
     8    4    5 1
     9    4   26 1
    10    4   27 1
    11    5    6 2
    12    5    7 1
    13    8    9 am
    14    8   28 1
    15    9   10 2
    16    9   11 am
    17   11   12 1
    18   11   29 1
    19   12   13 1
    20   12   14 1
    21   12   15 1
    22   14   30 1
    23   14   31 1
    24   14   32 1
    25   15   20 ar
    26   15   16 ar
    27   16   17 ar
    28   16   33 1
    29   17   18 ar
    30   17   34 1
    31   18   19 ar
    32   18   22 1
    33   19   20 ar
    34   19   35 1
    35   20   21 1
@<TRIPOS>MOLECULE
ZINC50208801
   37    38     0     0     0
SMALL
USER_CHARGES

@<TRIPOS>ATOM
      1 C1         -0.0229    1.5186   -0.0113 C.3       1 <0>        -0.1648
      2 C2          0.0034   -0.0112    0.0014 C.3       1 <0>         0.1537
      3 H1          0.5278   -0.3582    0.8918 H         1 <0>         0.0953
      4 C3          0.7272   -0.5192   -1.2472 C.3       1 <0>         0.0718
      5 H2          0.6616   -1.6061   -1.2960 H         1 <0>         0.0874
      6 C4          2.2082   -0.0852   -1.2070 C.3       1 <0>        -0.1498
      7 C5          2.4844    0.2822   -2.6905 C.3       1 <0>        -0.1553
      8 C6          1.1092    0.8588   -3.1116 C.3       1 <0>         0.0492
      9 O1          0.1373    0.0563   -2.4187 O.3       1 <0>        -0.3710
     10 N1         -1.3692   -0.5231    0.0124 N.am      1 <0>        -0.7342
     11 C7         -2.0304   -0.6535    1.1796 C.2       1 <0>         0.7010
     12 O2         -1.4878   -0.3464    2.2233 O.2       1 <0>        -0.5901
     13 N2         -3.2932   -1.1245    1.1897 N.am      1 <0>        -0.6572
     14 C8         -3.9344   -1.3704    2.4002 C.ar      1 <0>         0.2203
     15 C9         -3.1912   -1.6472    3.5400 C.ar      1 <0>        -0.1509
     16 C10        -3.8285   -1.8913    4.7393 C.ar      1 <0>        -0.0734
     17 C11        -5.2131   -1.8628    4.8177 C.ar      1 <0>        -0.1303
     18 C12        -5.9681   -1.5900    3.6978 C.ar      1 <0>        -0.0307
     19 C13        -5.3362   -1.3343    2.4763 C.ar      1 <0>        -0.1724
     20 C14        -6.1353   -1.0359    1.2775 C.2       1 <0>         0.5315
     21 O3         -7.3497   -0.9162    1.3660 O.co2     1 <0>        -0.6734
     22 O4         -5.5854   -0.9074    0.1921 O.co2     1 <0>        -0.6859
     23 Br1        -6.0689   -2.2004    6.4698 Br        1 <0>        -0.0781
     24 H3          0.9984    1.8994   -0.0195 H         1 <0>         0.0599
     25 H4         -0.5472    1.8656   -0.9016 H         1 <0>         0.0637
     26 H5         -0.5385    1.8805    0.8783 H         1 <0>         0.0634
     27 H6          2.3407    0.7829   -0.5612 H         1 <0>         0.0854
     28 H7          2.8454   -0.9094   -0.8864 H         1 <0>         0.0842
     29 H8          3.2674    1.0365   -2.7692 H         1 <0>         0.0826
     30 H9          2.7346   -0.6035   -3.2745 H         1 <0>         0.0779
     31 H10         1.0267    1.9018   -2.8061 H         1 <0>         0.0611
     32 H11         0.9748    0.7676   -4.1894 H         1 <0>         0.0843
     33 H12        -1.8021   -0.7682   -0.8203 H         1 <0>         0.4038
     34 H13        -3.7550   -1.2920    0.3533 H         1 <0>         0.4277
     35 H14        -2.1127   -1.6718    3.4878 H         1 <0>         0.1497
     36 H15        -3.2455   -2.1064    5.6226 H         1 <0>         0.1252
     37 H16        -7.0458   -1.5693    3.7640 H         1 <0>         0.1384
@<TRIPOS>BOND
     1    1    2 1
     2    1   24 1
     3    1   25 1
     4    1   26 1
     5    2    3 1
     6    2    4 1
     7    2   10 1
     8    4    5 1
     9    4    9 1
    10    4    6 1
    11    6    7 1
    12    6   27 1
    13    6   28 1
    14    7    8 1
    15    7   29 1
    16    7   30 1
    17    8    9 1
    18    8   31 1
    19    8   32 1
    20   10   11 am
    21   10   33 1
    22   11   12 2
    23   11   13 am
    24   13   14 1
    25   13   34 1
    26   14   19 ar
    27   14   15 ar
    28   15   16 ar
    29   15   35 1
    30   16   17 ar
    31   16   36 1
    32   17   18 ar
    33   17   23 1
    34   18   19 ar
    35   18   37 1
    36   19   20 1
    37   20   21 2
    38   20   22 1
@<TRIPOS>MOLECULE
ZINC41793205
   32    32     0     0     0
SMALL
USER_CHARGES

@<TRIPOS>ATOM
      1 C1          0.2121    1.5094   -0.0771 C.3       1 <0>        -0.1658
      2 C2          0.0021   -0.0041    0.0020 C.3       1 <0>         0.0750
      3 C3          0.7235   -0.5490    1.2077 C.ar      1 <0>        -0.0251
      4 C4          1.4253    0.3052    2.0376 C.ar      1 <0>        -0.0987
      5 C5          2.0872   -0.1938    3.1434 C.ar      1 <0>        -0.1170
      6 C6          2.0473   -1.5489    3.4208 C.ar      1 <0>        -0.0334
      7 C7          1.3449   -2.4040    2.5911 C.ar      1 <0>        -0.1160
      8 C8          0.6786   -1.9032    1.4869 C.ar      1 <0>        -0.0009
      9 Cl1        -0.2083   -2.9748    0.4483 Cl        1 <0>        -0.0101
     10 Cl2         2.8792   -2.1756    4.8097 Cl        1 <0>        -0.0800
     11 C9         -1.4705   -0.3013    0.1210 C.2       1 <0>         0.5167
     12 O1         -2.0003   -1.0779   -0.6554 O.co2     1 <0>        -0.6563
     13 O2         -2.1321    0.2348    0.9935 O.co2     1 <0>        -0.6913
     14 N1          0.5326   -0.6362   -1.2132 N.3       1 <0>        -0.6264
     15 C10        -0.1487   -0.1281   -2.4114 C.3       1 <0>         0.0363
     16 C11         0.4209   -0.7979   -3.6353 C.2       1 <0>         0.5170
     17 O3          1.3072   -1.6179   -3.5207 O.2       1 <0>        -0.5315
     18 N2         -0.0546   -0.4858   -4.8571 N.am      1 <0>        -0.7453
     19 C12         0.4992   -1.1370   -6.0469 C.3       1 <0>         0.0920
     20 H1          1.2772    1.7244   -0.1631 H         1 <0>         0.0434
     21 H2         -0.3097    1.9035   -0.9491 H         1 <0>         0.0546
     22 H3         -0.1815    1.9784    0.8246 H         1 <0>         0.0700
     23 H4          1.4567    1.3629    1.8215 H         1 <0>         0.1386
     24 H5          2.6359    0.4740    3.7911 H         1 <0>         0.1317
     25 H6          1.3136   -3.4617    2.8072 H         1 <0>         0.1364
     26 H7          1.5308   -0.5060   -1.2823 H         1 <0>         0.3254
     27 H8         -1.2149   -0.3440   -2.3421 H         1 <0>         0.1387
     28 H9         -0.0001    0.9492   -2.4845 H         1 <0>         0.0432
     29 H10        -0.7634    0.1700   -4.9488 H         1 <0>         0.4002
     30 H11         1.5654   -0.9211   -6.1162 H         1 <0>         0.0535
     31 H12         0.3506   -2.2143   -5.9738 H         1 <0>         0.0558
     32 H13        -0.0064   -0.7599   -6.9359 H         1 <0>         0.0692
@<TRIPOS>BOND
     1    1    2 1
     2    1   20 1
     3    1   21 1
     4    1   22 1
     5    2    3 1
     6    2   11 1
     7    2   14 1
     8    3    8 ar
     9    3    4 ar
    10    4    5 ar
    11    4   23 1
    12    5    6 ar
    13    5   24 1
    14    6    7 ar
    15    6   10 1
    16    7    8 ar
    17    7   25 1
    18    8    9 1
    19   11   12 2
    20   11   13 1
    21   14   15 1
    22   14   26 1
    23   15   16 1
    24   15   27 1
    25   15   28 1
    26   16   17 2
    27   16   18 am
    28   18   19 1
    29   18   29 1
    30   19   30 1
    31   19   31 1
    32   19   32 1
@<TRIPOS>MOLECULE
ZINC00301889
   39    41     0     0     0
SMALL
USER_CHARGES
(2-aminophenyl)-(5-hydroxy-3-methyl-5-phenyl-4H-pyrazol-1-yl)-methanone
@<TRIPOS>ATOM
      1 C1          2.0289    4.8399    1.8845 C.3       1 <0>        -0.0832
      2 C2          1.8544    3.4397    1.3553 C.2       1 <0>         0.1086
      3 N1          2.2886    2.3870    1.9172 N.2       1 <0>        -0.2405
      4 N2          2.0036    1.2036    1.2316 N.am      1 <0>        -0.4782
      5 C3          1.2502    1.5402    0.0121 C.3       1 <0>         0.3584
      6 C4          1.1363    3.0768    0.0751 C.3       1 <0>        -0.1216
      7 C5          2.0101    1.1132   -1.2172 C.ar      1 <0>        -0.1215
      8 C6          1.3399    0.9153   -2.4100 C.ar      1 <0>        -0.0916
      9 C7          2.0376    0.5279   -3.5387 C.ar      1 <0>        -0.1187
     10 C8          3.4040    0.3294   -3.4725 C.ar      1 <0>        -0.1079
     11 C9          4.0734    0.5222   -2.2784 C.ar      1 <0>        -0.1190
     12 C10         3.3764    0.9138   -1.1508 C.ar      1 <0>        -0.0954
     13 O1         -0.0450    0.9371    0.0371 O.3       1 <0>        -0.5447
     14 C11         2.3564   -0.0380    1.6194 C.2       1 <0>         0.6139
     15 O2          1.9781   -1.0040    0.9845 O.2       1 <0>        -0.5280
     16 C12         3.2007   -0.2252    2.8130 C.ar      1 <0>        -0.2265
     17 C13         3.0626    0.6263    3.9126 C.ar      1 <0>        -0.0078
     18 C14         3.8510    0.4426    5.0271 C.ar      1 <0>        -0.1956
     19 C15         4.7896   -0.5767    5.0609 C.ar      1 <0>        -0.0387
     20 C16         4.9421   -1.4221    3.9814 C.ar      1 <0>        -0.2150
     21 C17         4.1525   -1.2562    2.8502 C.ar      1 <0>         0.2751
     22 N3          4.3038   -2.1062    1.7624 N.pl3     1 <0>        -0.8605
     23 H1          1.1885    5.0911    2.5316 H         1 <0>         0.0909
     24 H2          2.9565    4.9001    2.4539 H         1 <0>         0.0868
     25 H3          2.0681    5.5411    1.0509 H         1 <0>         0.0878
     26 H4          1.6300    3.5327   -0.7831 H         1 <0>         0.1160
     27 H5          0.0909    3.3816    0.1230 H         1 <0>         0.1203
     28 H6          0.2718    1.0667   -2.4608 H         1 <0>         0.1303
     29 H7          1.5147    0.3776   -4.4717 H         1 <0>         0.1278
     30 H8          3.9487    0.0241   -4.3537 H         1 <0>         0.1258
     31 H9          5.1409    0.3671   -2.2267 H         1 <0>         0.1244
     32 H10         3.8993    1.0644   -0.2179 H         1 <0>         0.1159
     33 H11        -0.0288   -0.0298    0.0349 H         1 <0>         0.3942
     34 H12         2.3359    1.4249    3.8900 H         1 <0>         0.1349
     35 H13         3.7403    1.0993    5.8774 H         1 <0>         0.1245
     36 H14         5.4058   -0.7098    5.9378 H         1 <0>         0.1257
     37 H15         5.6758   -2.2139    4.0157 H         1 <0>         0.1265
     38 H16         3.8084   -1.9407    0.9450 H         1 <0>         0.4072
     39 H17         4.9048   -2.8654    1.8200 H         1 <0>         0.3996
@<TRIPOS>BOND
     1    1    2 1
     2    1   23 1
     3    1   24 1
     4    1   25 1
     5    2    6 1
     6    2    3 2
     7    3    4 1
     8    4    5 1
     9    4   14 am
    10    5    6 1
    11    5    7 1
    12    5   13 1
    13    6   26 1
    14    6   27 1
    15    7   12 ar
    16    7    8 ar
    17    8    9 ar
    18    8   28 1
    19    9   10 ar
    20    9   29 1
    21   10   11 ar
    22   10   30 1
    23   11   12 ar
    24   11   31 1
    25   12   32 1
    26   13   33 1
    27   14   15 2
    28   14   16 1
    29   16   21 ar
    30   16   17 ar
    31   17   18 ar
    32   17   34 1
    33   18   19 ar
    34   18   35 1
    35   19   20 ar
    36   19   36 1
    37   20   21 ar
    38   20   37 1
    39   21   22 1
    40   22   38 1
    41   22   39 1
@<TRIPOS>MOLECULE
ZINC20295280
   42    44     0     0     0
SMALL
USER_CHARGES
(2R)-1-[(2S,4R)-2-methyl1,2,3,4-tetrahydroquinoline-4-carbonyl]pyrrolidine-2-carboxamide
@<TRIPOS>ATOM
      1 C1          4.6843   -5.5232   -1.8547 C.3       1 <0>        -0.1607
      2 C2          4.5869   -4.0038   -1.7036 C.3       1 <0>         0.1553
      3 H1          4.9128   -3.5206   -2.6365 H         1 <0>         0.0671
      4 C3          3.1511   -3.6094   -1.3335 C.3       1 <0>        -0.1194
      5 C4          3.0620   -2.0854   -1.2567 C.3       1 <0>        -0.0467
      6 H2          3.1832   -1.6567   -2.2625 H         1 <0>         0.0920
      7 C5          4.1505   -1.5376   -0.3718 C.ar      1 <0>        -0.1502
      8 C6          4.0005   -0.2714    0.1691 C.ar      1 <0>        -0.0499
      9 C7          4.9827    0.2602    0.9817 C.ar      1 <0>        -0.1764
     10 C8          6.1243   -0.4693    1.2603 C.ar      1 <0>        -0.0727
     11 C9          6.2812   -1.7325    0.7266 C.ar      1 <0>        -0.1974
     12 C10         5.2928   -2.2705   -0.0906 C.ar      1 <0>         0.2309
     13 N1          5.4698   -3.5541   -0.6188 N.pl3     1 <0>        -0.7613
     14 C11         1.7195   -1.6925   -0.6962 C.2       1 <0>         0.5443
     15 O1          1.5440   -1.6783    0.5038 O.2       1 <0>        -0.5073
     16 N2          0.7138   -1.3569   -1.5283 N.am      1 <0>        -0.6096
     17 C12         0.8160   -1.2341   -2.9939 C.3       1 <0>         0.0928
     18 C13        -0.3322   -0.2737   -3.3924 C.3       1 <0>        -0.1347
     19 C14        -1.4515   -0.7001   -2.4061 C.3       1 <0>        -0.1183
     20 C15        -0.6671   -1.0535   -1.1250 C.3       1 <0>         0.1218
     21 H3         -1.0830   -1.9258   -0.5995 H         1 <0>         0.1000
     22 C16        -0.6817    0.1170   -0.1758 C.2       1 <0>         0.5078
     23 O2          0.3596    0.6468    0.1497 O.2       1 <0>        -0.5246
     24 N3         -1.8519    0.5750    0.3112 N.am      1 <0>        -0.8801
     25 H4          4.0215   -5.8540   -2.6679 H         1 <0>         0.0727
     26 H5          4.3796   -6.0055   -0.9142 H         1 <0>         0.0637
     27 H6          5.7218   -5.8024   -2.0907 H         1 <0>         0.0646
     28 H7          2.4584   -3.9847   -2.1011 H         1 <0>         0.0793
     29 H8          2.8903   -4.0472   -0.3587 H         1 <0>         0.0795
     30 H9          3.1116    0.3030   -0.0459 H         1 <0>         0.1206
     31 H10         4.8592    1.2481    1.4004 H         1 <0>         0.1163
     32 H11         6.8921   -0.0509    1.8943 H         1 <0>         0.1194
     33 H12         7.1721   -2.3032    0.9435 H         1 <0>         0.1191
     34 H13         6.2542   -4.2230   -0.2350 H         1 <0>         0.4194
     35 H14         1.8013   -0.8235   -3.2596 H         1 <0>         0.0788
     36 H15         0.6958   -2.2259   -3.4542 H         1 <0>         0.0735
     37 H16        -0.0044    0.7671   -3.2537 H         1 <0>         0.0787
     38 H17        -0.5974   -0.4371   -4.4474 H         1 <0>         0.0915
     39 H18        -2.1485    0.1379   -2.2580 H         1 <0>         0.0895
     40 H19        -1.9964   -1.5614   -2.8199 H         1 <0>         0.0916
     41 H20        -1.8626    1.4293    1.0040 H         1 <0>         0.4225
     42 H21        -2.7963    0.0945    0.0159 H         1 <0>         0.4167
@<TRIPOS>BOND
     1    1    2 1
     2    1   25 1
     3    1   26 1
     4    1   27 1
     5    2    3 1
     6    2   13 1
     7    2    4 1
     8    4    5 1
     9    4   28 1
    10    4   29 1
    11    5    6 1
    12    5    7 1
    13    5   14 1
    14    7   12 ar
    15    7    8 ar
    16    8    9 ar
    17    8   30 1
    18    9   10 ar
    19    9   31 1
    20   10   11 ar
    21   10   32 1
    22   11   12 ar
    23   11   33 1
    24   12   13 1
    25   13   34 1
    26   14   15 2
    27   14   16 am
    28   16   20 1
    29   16   17 1
    30   17   18 1
    31   17   35 1
    32   17   36 1
    33   18   19 1
    34   18   37 1
    35   18   38 1
    36   19   20 1
    37   19   39 1
    38   19   40 1
    39   20   21 1
    40   20   22 1
    41   22   23 2
    42   22   24 am
    43   24   41 1
    44   24   42 1
@<TRIPOS>MOLECULE
ZINC40471562
   29    30     0     0     0
SMALL
USER_CHARGES

@<TRIPOS>ATOM
      1 C1          0.0383    1.6211    0.0691 C.ar      1 <0>        -0.1199
      2 C2          1.1179    1.9045    0.8755 C.ar      1 <0>        -0.0564
      3 C3          2.2447    1.0762    0.8493 C.ar      1 <0>        -0.1357
      4 C4          2.2649   -0.0412   -0.0024 C.ar      1 <0>         0.1496
      5 C5          1.1676   -0.3107   -0.8076 C.ar      1 <0>        -0.1192
      6 C6          0.0615    0.5171   -0.7707 C.ar      1 <0>        -0.0255
      7 Cl1        -1.3074    0.1732   -1.7814 Cl        1 <0>        -0.0718
      8 N1          3.3800   -0.8732   -0.0383 N.am      1 <0>        -0.5931
      9 C7          3.2221   -2.2078   -0.1398 C.2       1 <0>         0.4971
     10 O1          2.1159   -2.6767   -0.3053 O.2       1 <0>        -0.5278
     11 C8          4.4200   -3.1175   -0.0478 C.3       1 <0>        -0.0047
     12 H1          4.8988   -2.9598    0.9186 H         1 <0>         0.1891
     13 C9          5.4213   -2.7259   -1.1621 C.3       1 <0>        -0.0777
     14 S1          6.0342   -4.4009   -1.6469 S.3       1 <0>        -0.1741
     15 C10         4.4869   -5.3187   -1.2282 C.3       1 <0>         0.0263
     16 N2          3.9587   -4.4982   -0.1158 N.4       1 <0>        -0.5024
     17 C11         3.4015    1.3733    1.7076 C.2       1 <0>         0.5251
     18 O2          3.4009    2.3753    2.4098 O.co2     1 <0>        -0.6569
     19 O3          4.3643    0.6184    1.7196 O.co2     1 <0>        -0.6942
     20 H2         -0.8327    2.2591    0.0938 H         1 <0>         0.1362
     21 H3          1.0948    2.7655    1.5271 H         1 <0>         0.1484
     22 H4          1.1779   -1.1683   -1.4641 H         1 <0>         0.1394
     23 H5          4.2709   -0.4925    0.0097 H         1 <0>         0.4343
     24 H6          4.9162   -2.2334   -1.9930 H         1 <0>         0.1312
     25 H7          6.2283   -2.1073   -0.7696 H         1 <0>         0.1693
     26 H8          3.7954   -5.3261   -2.0707 H         1 <0>         0.1595
     27 H9          4.7102   -6.3332   -0.8978 H         1 <0>         0.1779
     28 H10         4.2057   -4.9537    0.7500 H         1 <0>         0.4406
     29 H11         2.9522   -4.4889   -0.1854 H         1 <0>         0.4352
@<TRIPOS>BOND
     1    1    6 ar
     2    1    2 ar
     3    1   20 1
     4    2    3 ar
     5    2   21 1
     6    3    4 ar
     7    3   17 1
     8    4    5 ar
     9    4    8 1
    10    5    6 ar
    11    5   22 1
    12    6    7 1
    13    8    9 am
    14    8   23 1
    15    9   10 2
    16    9   11 1
    17   11   12 1
    18   11   16 1
    19   11   13 1
    20   13   14 1
    21   13   24 1
    22   13   25 1
    23   14   15 1
    24   15   16 1
    25   15   26 1
    26   15   27 1
    27   16   28 1
    28   16   29 1
    29   17   18 2
    30   17   19 1
@<TRIPOS>MOLECULE
ZINC48949522
   29    29     0     0     0
SMALL
USER_CHARGES

@<TRIPOS>ATOM
      1 C1         -0.1025    1.3953    0.9025 C.3       1 <0>         0.1029
      2 N1         -0.0457   -0.0673    0.8427 N.am      1 <0>        -0.7478
      3 C2         -1.1278   -0.7980    1.1768 C.2       1 <0>         0.7111
      4 O1         -2.1512   -0.2432    1.5278 O.2       1 <0>        -0.5677
      5 N2         -1.0756   -2.1436    1.1218 N.am      1 <0>        -0.5310
      6 N3          0.1036   -2.7829    0.7174 N.am      1 <0>        -0.5266
      7 C3          0.1559   -4.1285    0.6624 C.2       1 <0>         0.5423
      8 O2         -0.8212   -4.7883    0.9641 O.2       1 <0>        -0.5155
      9 C4          1.3881   -4.7965    0.2398 C.2       1 <0>        -0.2043
     10 C5          1.4023   -6.1325    0.0575 C.2       1 <0>        -0.0075
     11 C6          0.1405   -6.8897    0.0657 C.ar      1 <0>        -0.0454
     12 C7         -0.9464   -6.4531   -0.6986 C.ar      1 <0>        -0.0457
     13 C8         -2.1251   -7.1678   -0.6857 C.ar      1 <0>        -0.1110
     14 C9         -2.2355   -8.3151    0.0814 C.ar      1 <0>        -0.1007
     15 C10        -1.1656   -8.7543    0.8405 C.ar      1 <0>        -0.1004
     16 C11         0.0236   -8.0535    0.8337 C.ar      1 <0>        -0.0719
     17 Br1         1.4878   -8.6600    1.8653 Br        1 <0>        -0.0489
     18 H1          0.8592    1.8090    0.5989 H         1 <0>         0.0802
     19 H2         -0.8816    1.7564    0.2310 H         1 <0>         0.0632
     20 H3         -0.3274    1.7089    1.9219 H         1 <0>         0.0632
     21 H4          0.7707   -0.5100    0.5627 H         1 <0>         0.3927
     22 H5         -1.8544   -2.6695    1.3623 H         1 <0>         0.4442
     23 H6          0.8825   -2.2570    0.4769 H         1 <0>         0.4190
     24 H7          2.2857   -4.2193    0.0739 H         1 <0>         0.1442
     25 H8          2.3398   -6.6468   -0.0944 H         1 <0>         0.1488
     26 H9         -0.8626   -5.5581   -1.2972 H         1 <0>         0.1217
     27 H10        -2.9650   -6.8317   -1.2755 H         1 <0>         0.1279
     28 H11        -3.1620   -8.8699    0.0876 H         1 <0>         0.1306
     29 H12        -1.2596   -9.6501    1.4363 H         1 <0>         0.1325
@<TRIPOS>BOND
     1    1    2 1
     2    1   18 1
     3    1   19 1
     4    1   20 1
     5    2    3 am
     6    2   21 1
     7    3    4 2
     8    3    5 am
     9    5    6 1
    10    5   22 1
    11    6    7 am
    12    6   23 1
    13    7    8 2
    14    7    9 1
    15    9   10 2
    16    9   24 1
    17   10   11 1
    18   10   25 1
    19   11   16 ar
    20   11   12 ar
    21   12   13 ar
    22   12   26 1
    23   13   14 ar
    24   13   27 1
    25   14   15 ar
    26   14   28 1
    27   15   16 ar
    28   15   29 1
    29   16   17 1
@<TRIPOS>MOLECULE
ZINC52860611
   40    41     0     0     0
SMALL
USER_CHARGES

@<TRIPOS>ATOM
      1 C1          0.8784   -0.3886    1.1865 C.3       1 <0>        -0.1505
      2 C2          0.0335   -0.0052   -0.0301 C.3       1 <0>        -0.1275
      3 C3          0.7808   -0.3845   -1.3101 C.3       1 <0>         0.1518
      4 H1          1.7758    0.0605   -1.2998 H         1 <0>         0.0754
      5 C4          0.8984   -1.9099   -1.4065 C.3       1 <0>         0.0517
      6 O1          1.4289   -2.2611   -2.6868 O.3       1 <0>        -0.3770
      7 C5          0.6013   -1.8790   -3.7881 C.3       1 <0>         0.0726
      8 H2         -0.3853   -2.3284   -3.6752 H         1 <0>         0.0568
      9 C6          0.4685   -0.3520   -3.8136 C.3       1 <0>         0.1266
     10 N1          0.0337    0.0991   -2.4820 N.pl3     1 <0>        -0.6598
     11 C7         -1.0532    0.9576   -2.3351 C.ar      1 <0>         0.2333
     12 C8         -2.3207    0.4433   -2.0979 C.ar      1 <0>        -0.1179
     13 C9         -3.3971    1.2956   -1.9525 C.ar      1 <0>        -0.0840
     14 C10        -3.2213    2.6674   -2.0415 C.ar      1 <0>        -0.0413
     15 C11        -1.9678    3.1947   -2.2763 C.ar      1 <0>        -0.0816
     16 C12        -0.8711    2.3445   -2.4203 C.ar      1 <0>        -0.0535
     17 C13         0.4752    2.9035   -2.6665 C.2       1 <0>         0.4023
     18 N2          1.5118    2.1166   -2.6927 N.2       1 <0>        -0.3720
     19 O2          2.8013    2.6520   -2.9285 O.3       1 <0>        -0.4319
     20 N3          0.6335    4.2642   -2.8691 N.pl3     1 <0>        -0.8730
     21 Cl1        -4.5840    3.7271   -1.8571 Cl        1 <0>        -0.0605
     22 C14         1.2355   -2.3597   -5.0949 C.3       1 <0>        -0.1449
     23 H3          0.9852   -1.4725    1.2276 H         1 <0>         0.0573
     24 H4          1.8635    0.0707    1.1040 H         1 <0>         0.0570
     25 H5          0.3885   -0.0370    2.0945 H         1 <0>         0.0579
     26 H6         -0.9177   -0.5363    0.0062 H         1 <0>         0.0657
     27 H7         -0.1498    1.0693   -0.0212 H         1 <0>         0.0657
     28 H8          1.5644   -2.2739   -0.6242 H         1 <0>         0.0979
     29 H9         -0.0871   -2.3594   -1.2850 H         1 <0>         0.0495
     30 H10         1.4320    0.0963   -4.0560 H         1 <0>         0.0668
     31 H11        -0.2708   -0.0602   -4.5596 H         1 <0>         0.0693
     32 H12        -2.4650   -0.6247   -2.0274 H         1 <0>         0.1382
     33 H13        -4.3815    0.8911   -1.7688 H         1 <0>         0.1398
     34 H14        -1.8354    4.2643   -2.3449 H         1 <0>         0.1357
     35 H15         3.5073    1.9913   -2.9296 H         1 <0>         0.3997
     36 H16        -0.1390    4.8506   -2.8496 H         1 <0>         0.3942
     37 H17         1.5168    4.6310   -3.0307 H         1 <0>         0.4095
     38 H18         1.3330   -3.4452   -5.0736 H         1 <0>         0.0652
     39 H19         0.6040   -2.0681   -5.9340 H         1 <0>         0.0707
     40 H20         2.2212   -1.9085   -5.2079 H         1 <0>         0.0646
@<TRIPOS>BOND
     1    1    2 1
     2    1   23 1
     3    1   24 1
     4    1   25 1
     5    2    3 1
     6    2   26 1
     7    2   27 1
     8    3    4 1
     9    3   10 1
    10    3    5 1
    11    5    6 1
    12    5   28 1
    13    5   29 1
    14    6    7 1
    15    7    8 1
    16    7    9 1
    17    7   22 1
    18    9   10 1
    19    9   30 1
    20    9   31 1
    21   10   11 1
    22   11   16 ar
    23   11   12 ar
    24   12   13 ar
    25   12   32 1
    26   13   14 ar
    27   13   33 1
    28   14   15 ar
    29   14   21 1
    30   15   16 ar
    31   15   34 1
    32   16   17 1
    33   17   18 2
    34   17   20 1
    35   18   19 1
    36   19   35 1
    37   20   36 1
    38   20   37 1
    39   22   38 1
    40   22   39 1
    41   22   40 1
@<TRIPOS>MOLECULE
ZINC02996753
   38    40     0     0     0
SMALL
USER_CHARGES
3-[5-[[3-(carboxymethyl)-4-oxo-2-thioxo-thiazolidin-5-ylidene]methyl]-2-furyl]-2-methyl-benzoic acid
@<TRIPOS>ATOM
      1 C1          2.7595    5.5798   -2.2250 C.3       1 <0>        -0.1171
      2 C2          3.6507    5.9641   -1.0721 C.ar      1 <0>         0.0012
      3 C3          3.8834    5.0610   -0.0351 C.ar      1 <0>        -0.0770
      4 C4          4.7070    5.4266    1.0337 C.ar      1 <0>        -0.0871
      5 C5          5.2983    6.6740    1.0582 C.ar      1 <0>        -0.1563
      6 C6          5.0720    7.5728    0.0348 C.ar      1 <0>        -0.0565
      7 C7          4.2463    7.2232   -1.0373 C.ar      1 <0>        -0.1235
      8 C8          4.0060    8.1864   -2.1316 C.2       1 <0>         0.4896
      9 O1          3.3430    7.8581   -3.0950 O.co2     1 <0>        -0.6074
     10 C9          3.2570    3.7248   -0.0630 C.2       1 <0>         0.1051
     11 C10         3.9063    2.5375    0.1244 C.2       1 <0>        -0.2264
     12 C11         2.9503    1.5239    0.0186 C.2       1 <0>        -0.1369
     13 C12         1.7388    2.1433   -0.2327 C.2       1 <0>        -0.0509
     14 O2          1.9534    3.4749   -0.2830 O.3       1 <0>        -0.0949
     15 C13         0.4974    1.4958   -0.4113 C.2       1 <0>         0.0929
     16 C14        -0.6450    2.2325   -0.5348 C.2       1 <0>        -0.2275
     17 C15        -0.8138    3.6910   -0.6438 C.2       1 <0>         0.5219
     18 O3          0.1410    4.4470   -0.6332 O.2       1 <0>        -0.4035
     19 N1         -2.0527    4.1400   -0.7542 N.am      1 <0>        -0.4848
     20 C16        -3.1076    3.2995   -0.7655 C.2       1 <0>         0.3184
     21 S1         -4.7711    3.6815   -0.8992 S.2       1 <0>        -0.3861
     22 S2         -2.3467    1.6910   -0.6165 S.3       1 <0>         0.0286
     23 C17        -2.2846    5.5822   -0.8662 C.3       1 <0>         0.0356
     24 C18        -2.2725    5.9816   -2.3193 C.2       1 <0>         0.4698
     25 O4         -2.0890    5.1472   -3.1737 O.co2     1 <0>        -0.6250
     26 H1          1.7567    5.9718   -2.0555 H         1 <0>         0.0811
     27 H2          3.1610    5.9960   -3.1490 H         1 <0>         0.1084
     28 H3          2.7164    4.4935   -2.3045 H         1 <0>         0.0363
     29 H4          4.8848    4.7301    1.8398 H         1 <0>         0.1179
     30 H5          5.9372    6.9498    1.8840 H         1 <0>         0.1200
     31 H6          5.5339    8.5486    0.0629 H         1 <0>         0.1324
     32 H7          4.9607    2.4068    0.3184 H         1 <0>         0.1523
     33 H8          3.1234    0.4622    0.1149 H         1 <0>         0.1556
     34 H9          0.4520    0.4177   -0.4547 H         1 <0>         0.1744
     35 H10        -3.2521    5.8296   -0.4294 H         1 <0>         0.1147
     36 H11        -1.4983    6.1189   -0.3353 H         1 <0>         0.1085
     37 O5          4.5220    9.4287   -2.0608 O.co2     1 <0>        -0.7605
     38 O6         -2.4656    7.2643   -2.6644 O.co2     1 <0>        -0.7431
@<TRIPOS>BOND
     1    1    2 1
     2    1   26 1
     3    1   27 1
     4    1   28 1
     5    2    7 ar
     6    2    3 ar
     7    3    4 ar
     8    3   10 1
     9    4    5 ar
    10    4   29 1
    11    5    6 ar
    12    5   30 1
    13    6    7 ar
    14    6   31 1
    15    7    8 1
    16    8    9 2
    17    8   37 1
    18   10   14 1
    19   10   11 2
    20   11   12 1
    21   11   32 1
    22   12   13 2
    23   12   33 1
    24   13   14 1
    25   13   15 1
    26   15   16 2
    27   15   34 1
    28   16   22 1
    29   16   17 1
    30   17   18 2
    31   17   19 am
    32   19   20 1
    33   19   23 1
    34   20   21 2
    35   20   22 1
    36   23   24 1
    37   23   35 1
    38   23   36 1
    39   24   25 2
    40   24   38 1
@<TRIPOS>MOLECULE
ZINC16932800
   39    41     0     0     0
SMALL
USER_CHARGES
3-[(5Z)-5-[[2-(carboxymethyloxy)phenyl]methylene]-4-oxo-2-thioxo-thiazolidin-3-yl]benzoic acid
@<TRIPOS>ATOM
      1 C1          1.9391    1.1017   -0.8098 C.ar      1 <0>        -0.1705
      2 C2          2.3150   -0.0224   -0.0922 C.ar      1 <0>        -0.0479
      3 C3          1.6154   -0.3973    1.0389 C.ar      1 <0>        -0.2223
      4 C4          0.5297    0.3507    1.4647 C.ar      1 <0>         0.1867
      5 C5          0.1442    1.4911    0.7411 C.ar      1 <0>        -0.1445
      6 C6          0.8625    1.8587   -0.4029 C.ar      1 <0>        -0.0500
      7 C7         -1.0078    2.2888    1.1781 C.2       1 <0>         0.1235
      8 C8         -1.1610    3.5617    0.7312 C.2       1 <0>        -0.2614
      9 C9         -2.2982    4.4877    0.8995 C.2       1 <0>         0.5401
     10 O1         -3.2993    4.1660    1.5126 O.2       1 <0>        -0.4394
     11 N1         -2.1743    5.6846    0.3510 N.am      1 <0>        -0.4692
     12 C10        -1.0632    6.0371   -0.3271 C.2       1 <0>         0.2804
     13 S1         -0.7170    7.5244   -1.1011 S.2       1 <0>        -0.3544
     14 S2         -0.0376    4.5797   -0.2160 S.3       1 <0>         0.0616
     15 C11        -3.2212    6.6077    0.4776 C.ar      1 <0>         0.0699
     16 C12        -4.2435    6.6322   -0.4635 C.ar      1 <0>        -0.0885
     17 C13        -5.2815    7.5367   -0.3403 C.ar      1 <0>        -0.1293
     18 C14        -5.3038    8.4294    0.7119 C.ar      1 <0>        -0.0560
     19 C15        -4.2785    8.4168    1.6596 C.ar      1 <0>        -0.1032
     20 C16        -3.2338    7.4995    1.5379 C.ar      1 <0>        -0.0466
     21 C17        -4.2992    9.3714    2.7870 C.2       1 <0>         0.4936
     22 O2         -3.4060    9.3588    3.6100 O.co2     1 <0>        -0.6253
     23 O3         -0.1583   -0.0171    2.5753 O.3       1 <0>        -0.2772
     24 C18         0.2921   -1.1881    3.2594 C.3       1 <0>         0.0150
     25 C19        -0.5861   -1.4385    4.4582 C.2       1 <0>         0.4682
     26 O4         -1.5035   -0.6909    4.7018 O.co2     1 <0>        -0.6063
     27 H1          2.4926    1.3856   -1.6926 H         1 <0>         0.1294
     28 H2          3.1602   -0.6097   -0.4193 H         1 <0>         0.1282
     29 H3          1.9157   -1.2748    1.5923 H         1 <0>         0.1380
     30 H4          0.5729    2.7339   -0.9655 H         1 <0>         0.1378
     31 H5         -1.7337    1.8632    1.8551 H         1 <0>         0.1711
     32 H6         -4.2293    5.9390   -1.2915 H         1 <0>         0.1173
     33 H7         -6.0753    7.5479   -1.0725 H         1 <0>         0.1276
     34 H8         -6.1140    9.1378    0.8021 H         1 <0>         0.1385
     35 H9         -2.4377    7.4851    2.2676 H         1 <0>         0.1296
     36 H10         0.2412   -2.0441    2.5865 H         1 <0>         0.0713
     37 H11         1.3217   -1.0441    3.5870 H         1 <0>         0.0717
     38 O5         -5.3088   10.2559    2.9022 O.co2     1 <0>        -0.7527
     39 O6         -0.3491   -2.4921    5.2554 O.co2     1 <0>        -0.7548
@<TRIPOS>BOND
     1    1    6 ar
     2    1    2 ar
     3    1   27 1
     4    2    3 ar
     5    2   28 1
     6    3    4 ar
     7    3   29 1
     8    4    5 ar
     9    4   23 1
    10    5    6 ar
    11    5    7 1
    12    6   30 1
    13    7    8 2
    14    7   31 1
    15    8   14 1
    16    8    9 1
    17    9   10 2
    18    9   11 am
    19   11   12 1
    20   11   15 1
    21   12   13 2
    22   12   14 1
    23   15   20 ar
    24   15   16 ar
    25   16   17 ar
    26   16   32 1
    27   17   18 ar
    28   17   33 1
    29   18   19 ar
    30   18   34 1
    31   19   20 ar
    32   19   21 1
    33   20   35 1
    34   21   22 2
    35   21   38 1
    36   23   24 1
    37   24   25 1
    38   24   36 1
    39   24   37 1
    40   25   26 2
    41   25   39 1
@<TRIPOS>MOLECULE
ZINC37425361
   30    31     0     0     0
SMALL
USER_CHARGES

@<TRIPOS>ATOM
      1 C1         -0.5788    1.4386    0.0969 C.3       1 <0>        -0.1007
      2 C2         -0.2670   -0.0348    0.0436 C.ar      1 <0>        -0.0240
      3 C3         -0.3659   -0.7197   -1.1497 C.ar      1 <0>        -0.1591
      4 C4         -0.0800   -2.0725   -1.2006 C.ar      1 <0>         0.0062
      5 C5          0.3069   -2.7484   -0.0564 C.ar      1 <0>        -0.6459
      6 C6          0.4096   -2.0768    1.1437 C.ar      1 <0>         0.0012
      7 C7          0.1284   -0.7092    1.2013 C.ar      1 <0>        -0.1509
      8 C8          0.2428    0.0177    2.4801 C.2       1 <0>         0.5313
      9 O1          0.9234    1.0314    2.5484 O.co2     1 <0>        -0.6894
     10 O2         -0.3431   -0.3934    3.4717 O.co2     1 <0>        -0.6856
     11 S1          0.6684   -4.4712   -0.1332 S.o2      1 <0>         2.6494
     12 O3          1.5502   -4.6525   -1.2326 O.2       1 <0>        -1.0116
     13 O4          1.0041   -4.8750    1.1873 O.2       1 <0>        -1.0099
     14 N1         -0.7400   -5.2502   -0.5227 N.2       1 <0>        -1.0184
     15 C9         -0.7557   -6.6305   -0.6531 C.2       1 <0>         0.4117
     16 N2          0.2396   -7.4773   -0.5003 N.2       1 <0>        -0.6609
     17 C10         0.0602   -8.7772   -0.6613 C.2       1 <0>         0.1616
     18 C11        -1.1883   -9.1905   -0.9885 C.2       1 <0>        -0.3443
     19 S2         -2.0540   -7.6298   -1.0380 S.3       1 <0>         0.0630
     20 Br1        -1.8368  -10.9394   -1.2994 Br        1 <0>        -0.0153
     21 C12        -0.1908   -2.8137   -2.5080 C.3       1 <0>        -0.1340
     22 H1          0.3441    2.0093   -0.0057 H         1 <0>         0.0731
     23 H2         -1.2575    1.6960   -0.7163 H         1 <0>         0.0507
     24 H3         -1.0488    1.6762    1.0513 H         1 <0>         0.0700
     25 H4         -0.6675   -0.1988   -2.0464 H         1 <0>         0.1181
     26 H5          0.7112   -2.6056    2.0358 H         1 <0>         0.1347
     27 H6          0.8724   -9.4784   -0.5380 H         1 <0>         0.1502
     28 H7          0.7660   -2.7769   -3.0288 H         1 <0>         0.0777
     29 H8         -0.4597   -3.8523   -2.3152 H         1 <0>         0.0858
     30 H9         -0.9588   -2.3482   -3.1256 H         1 <0>         0.0652
@<TRIPOS>BOND
     1    1    2 1
     2    1   22 1
     3    1   23 1
     4    1   24 1
     5    2    7 ar
     6    2    3 ar
     7    3    4 ar
     8    3   25 1
     9    4    5 ar
    10    4   21 1
    11    5    6 ar
    12    5   11 1
    13    6    7 ar
    14    6   26 1
    15    7    8 1
    16    8    9 2
    17    8   10 1
    18   11   12 2
    19   11   13 2
    20   11   14 1
    21   14   15 1
    22   15   19 1
    23   15   16 2
    24   16   17 1
    25   17   18 2
    26   17   27 1
    27   18   19 1
    28   18   20 1
    29   21   28 1
    30   21   29 1
    31   21   30 1
@<TRIPOS>MOLECULE
ZINC44242846
   27    28     0     0     0
SMALL
USER_CHARGES

@<TRIPOS>ATOM
      1 C1         -0.0167    1.3830    0.0096 C.ar      1 <0>        -0.0582
      2 C2          1.1630    2.0983    0.0022 C.ar      1 <0>        -0.2787
      3 C3          2.3818    1.4317   -0.0134 C.ar      1 <0>         0.3051
      4 C4          2.4055    0.0265   -0.0211 C.ar      1 <0>        -0.1856
      5 C5          1.2005   -0.6841   -0.0130 C.ar      1 <0>        -0.0371
      6 C6          0.0021   -0.0041    0.0020 C.ar      1 <0>        -0.1477
      7 Cl1        -1.4921   -0.8878    0.0115 Cl        1 <0>        -0.1385
      8 C7          3.6883   -0.6920   -0.0382 C.2       1 <0>         0.5309
      9 O1          3.7043   -1.9154   -0.0448 O.co2     1 <0>        -0.7332
     10 O2          4.7398   -0.0664   -0.0457 O.co2     1 <0>        -0.6509
     11 N1          3.5695    2.1495   -0.0218 N.2       1 <0>        -0.9860
     12 S1          3.5364    3.8051   -0.0132 S.o2      1 <0>         2.5635
     13 O3          2.9650    4.2063   -1.2509 O.2       1 <0>        -1.0325
     14 O4          2.9902    4.1939    1.2397 O.2       1 <0>        -1.0334
     15 C8          5.2088    4.3597   -0.0273 C.ar      1 <0>        -0.6436
     16 C9          5.8889    4.5691    1.1627 C.ar      1 <0>         0.0529
     17 C10         7.2041    5.0059    1.1032 C.ar      1 <0>        -0.1711
     18 C11         7.7887    5.2163   -0.1327 C.ar      1 <0>         0.1583
     19 N2          7.1105    5.0064   -1.2437 N.ar      1 <0>        -0.4931
     20 C12         5.8607    4.5858   -1.2246 C.ar      1 <0>         0.2076
     21 Br1         8.1849    5.3104    2.6910 Br        1 <0>        -0.0463
     22 H1         -0.9613    1.9065    0.0260 H         1 <0>         0.1020
     23 H2          1.1390    3.1781    0.0082 H         1 <0>         0.0980
     24 H3          1.2095   -1.7641   -0.0192 H         1 <0>         0.1197
     25 H4          5.4060    4.3967    2.1132 H         1 <0>         0.1567
     26 H5          8.8122    5.5568   -0.1881 H         1 <0>         0.1634
     27 H6          5.3391    4.4206   -2.1557 H         1 <0>         0.1779
@<TRIPOS>BOND
     1    1    6 ar
     2    1    2 ar
     3    1   22 1
     4    2    3 ar
     5    2   23 1
     6    3    4 ar
     7    3   11 1
     8    4    5 ar
     9    4    8 1
    10    5    6 ar
    11    5   24 1
    12    6    7 1
    13    8    9 2
    14    8   10 1
    15   11   12 1
    16   12   13 2
    17   12   14 2
    18   12   15 1
    19   15   20 ar
    20   15   16 ar
    21   16   17 ar
    22   16   25 1
    23   17   18 ar
    24   17   21 1
    25   18   19 ar
    26   18   26 1
    27   19   20 ar
    28   20   27 1
@<TRIPOS>MOLECULE
ZINC55311815
   28    29     0     0     0
SMALL
USER_CHARGES

@<TRIPOS>ATOM
      1 C1         -0.0184    1.5028    0.0103 C.3       1 <0>        -0.0921
      2 C2          0.0021   -0.0041    0.0020 C.2       1 <0>         0.0890
      3 C3         -1.0883   -0.8040    0.0027 C.2       1 <0>        -0.7145
      4 C4         -0.6305   -2.1290   -0.0066 C.2       1 <0>        -0.1129
      5 C5          0.7464   -2.0683   -0.0126 C.2       1 <0>        -0.0704
      6 O1          1.1021   -0.7660   -0.0130 O.3       1 <0>        -0.1488
      7 C6          1.6585   -3.2099   -0.0231 C.2       1 <0>         0.5668
      8 O2          1.2120   -4.3506   -0.0272 O.co2     1 <0>        -0.6633
      9 O3          2.8696   -3.0263   -0.0277 O.co2     1 <0>        -0.6782
     10 S1         -2.7702   -0.2789    0.0139 S.o2      1 <0>         2.6449
     11 O4         -2.8959    0.7031   -1.0054 O.2       1 <0>        -1.0323
     12 O5         -3.5635   -1.4576    0.0381 O.2       1 <0>        -1.0274
     13 N1         -3.0314    0.4969    1.4534 N.2       1 <0>        -1.0613
     14 C7         -4.2920    1.0265    1.7433 C.ar      1 <0>         0.3208
     15 C8         -5.3282    0.8976    0.8275 C.ar      1 <0>        -0.2538
     16 C9         -6.5730    1.4214    1.1167 C.ar      1 <0>        -0.0212
     17 C10        -6.7887    2.0745    2.3174 C.ar      1 <0>        -0.1965
     18 C11        -5.7589    2.2047    3.2320 C.ar      1 <0>        -0.0146
     19 C12        -4.5127    1.6778    2.9508 C.ar      1 <0>        -0.1503
     20 Br1        -3.1076    1.8492    4.2045 Br        1 <0>        -0.0647
     21 Br2        -8.4944    2.7911    2.7085 Br        1 <0>        -0.0975
     22 H1          1.0042    1.8801    0.0026 H         1 <0>         0.0749
     23 H2         -0.5455    1.8639   -0.8728 H         1 <0>         0.0964
     24 H3         -0.5286    1.8543    0.9071 H         1 <0>         0.1026
     25 H4         -1.2377   -3.0222   -0.0081 H         1 <0>         0.1551
     26 H5         -5.1606    0.3886   -0.1102 H         1 <0>         0.1129
     27 H6         -7.3789    1.3213    0.4047 H         1 <0>         0.1155
     28 H7         -5.9301    2.7153    4.1681 H         1 <0>         0.1210
@<TRIPOS>BOND
     1    1    2 1
     2    1   22 1
     3    1   23 1
     4    1   24 1
     5    2    6 1
     6    2    3 2
     7    3    4 1
     8    3   10 1
     9    4    5 2
    10    4   25 1
    11    5    6 1
    12    5    7 1
    13    7    8 2
    14    7    9 1
    15   10   11 2
    16   10   12 2
    17   10   13 1
    18   13   14 1
    19   14   19 ar
    20   14   15 ar
    21   15   16 ar
    22   15   26 1
    23   16   17 ar
    24   16   27 1
    25   17   18 ar
    26   17   21 1
    27   18   19 ar
    28   18   28 1
    29   19   20 1
@<TRIPOS>MOLECULE
ZINC02532474
   39    41     0     0     0
SMALL
USER_CHARGES
5-(4-dimethylaminophenyl)-4-phenyl-1,2,4-triazolidine-3-thione
@<TRIPOS>ATOM
      1 C1         -2.7154    5.2138   -0.0597 C.3       1 <0>         0.0902
      2 N1         -2.6240    3.8158    0.3687 N.pl3     1 <0>        -0.6358
      3 C2         -3.8081    3.1320    0.8948 C.3       1 <0>         0.0865
      4 C3         -1.4081    3.1348    0.2754 C.ar      1 <0>         0.2297
      5 C4         -1.3429    1.7815    0.5819 C.ar      1 <0>        -0.2062
      6 C5         -0.1379    1.1125    0.4941 C.ar      1 <0>        -0.0276
      7 C6          1.0007    1.7857    0.0907 C.ar      1 <0>        -0.1699
      8 C7          0.9380    3.1315   -0.2211 C.ar      1 <0>        -0.0506
      9 C8         -0.2626    3.8079   -0.1300 C.ar      1 <0>        -0.1985
     10 C9          2.3126    1.0510   -0.0099 C.3       1 <0>         0.3245
     11 H1          2.5286    0.7987   -1.0481 H         1 <0>         0.1011
     12 N2          2.2872   -0.1677    0.8231 N.3       1 <0>        -0.4411
     13 N3          3.2754   -0.0131    1.7527 N.pl3     1 <0>        -0.5174
     14 C10         3.9081    1.1566    1.5925 C.2       1 <0>         0.5412
     15 S1          5.2032    1.6917    2.5760 S.2       1 <0>        -0.5867
     16 N4          3.4011    1.8607    0.5603 N.pl3     1 <0>        -0.5355
     17 C11         3.8257    3.1175    0.1163 C.ar      1 <0>         0.1575
     18 C12         4.2600    3.2830   -1.1924 C.ar      1 <0>        -0.1194
     19 C13         4.6741    4.5261   -1.6290 C.ar      1 <0>        -0.1072
     20 C14         4.6665    5.6031   -0.7616 C.ar      1 <0>        -0.1092
     21 C15         4.2397    5.4405    0.5436 C.ar      1 <0>        -0.1045
     22 C16         3.8194    4.2011    0.9850 C.ar      1 <0>        -0.0828
     23 H2         -2.9828    5.2535   -1.1156 H         1 <0>         0.0508
     24 H3         -3.4782    5.7247    0.5278 H         1 <0>         0.0683
     25 H4         -1.7530    5.7033    0.0901 H         1 <0>         0.0701
     26 H5         -3.5704    2.0845    1.0799 H         1 <0>         0.0791
     27 H6         -4.1163    3.6049    1.8272 H         1 <0>         0.0548
     28 H7         -4.6183    3.1980    0.1687 H         1 <0>         0.0579
     29 H8         -2.2326    1.2540    0.8928 H         1 <0>         0.1274
     30 H9         -0.0856    0.0613    0.7365 H         1 <0>         0.1325
     31 H10         1.8290    3.6542   -0.5365 H         1 <0>         0.1255
     32 H11        -0.3109    4.8589   -0.3739 H         1 <0>         0.1256
     33 H12         2.4436   -0.9921    0.2627 H         1 <0>         0.3587
     34 H13         3.4910   -0.6644    2.4384 H         1 <0>         0.4621
     35 H14         4.2704    2.4413   -1.8691 H         1 <0>         0.1242
     36 H15         5.0080    4.6564   -2.6478 H         1 <0>         0.1317
     37 H16         4.9943    6.5733   -1.1044 H         1 <0>         0.1296
     38 H17         4.2346    6.2836    1.2185 H         1 <0>         0.1324
     39 H18         3.4858    4.0748    2.0044 H         1 <0>         0.1311
@<TRIPOS>BOND
     1    1    2 1
     2    1   23 1
     3    1   24 1
     4    1   25 1
     5    2    3 1
     6    2    4 1
     7    3   26 1
     8    3   27 1
     9    3   28 1
    10    4    9 ar
    11    4    5 ar
    12    5    6 ar
    13    5   29 1
    14    6    7 ar
    15    6   30 1
    16    7    8 ar
    17    7   10 1
    18    8    9 ar
    19    8   31 1
    20    9   32 1
    21   10   11 1
    22   10   16 1
    23   10   12 1
    24   12   13 1
    25   12   33 1
    26   13   14 1
    27   13   34 1
    28   14   15 2
    29   14   16 1
    30   16   17 1
    31   17   22 ar
    32   17   18 ar
    33   18   19 ar
    34   18   35 1
    35   19   20 ar
    36   19   36 1
    37   20   21 ar
    38   20   37 1
    39   21   22 ar
    40   21   38 1
    41   22   39 1
@<TRIPOS>MOLECULE
ZINC20565086
   44    45     0     0     0
SMALL
USER_CHARGES
5-[[(3S,5S)-3,5-dimethyl-1-piperidyl]sulfonyl]-2,3-dimethyl-aniline
@<TRIPOS>ATOM
      1 C1         -5.6342   -5.6685    1.9073 C.3       1 <0>        -0.1186
      2 C2         -5.3568   -4.4942    1.0045 C.ar      1 <0>        -0.0575
      3 C3         -4.0830   -4.2929    0.5046 C.ar      1 <0>        -0.0825
      4 C4         -3.8229   -3.2135   -0.3194 C.ar      1 <0>        -0.6257
      5 C5         -4.8377   -2.3387   -0.6551 C.ar      1 <0>        -0.1112
      6 C6         -6.1193   -2.5410   -0.1595 C.ar      1 <0>         0.2149
      7 C7         -6.3759   -3.6235    0.6729 C.ar      1 <0>        -0.1198
      8 C8         -7.7647   -3.8468    1.2135 C.3       1 <0>        -0.1106
      9 N1         -7.1479   -1.6586   -0.4973 N.pl3     1 <0>        -0.8980
     10 S1         -2.1967   -2.9577   -0.9476 S.o2      1 <0>         2.6883
     11 O1         -2.3365   -2.1933   -2.1373 O.2       1 <0>        -0.9572
     12 O2         -1.5496   -4.2226   -0.9265 O.2       1 <0>        -0.9533
     13 N2         -1.3969   -1.9986    0.1399 N.pl3     1 <0>        -0.9939
     14 C9         -0.6359   -2.5951    1.2462 C.3       1 <0>         0.1193
     15 C10         0.7921   -2.0411    1.2174 C.3       1 <0>        -0.1021
     16 H1          1.3475   -2.4053    2.0943 H         1 <0>         0.0848
     17 C11         0.7422   -0.5117    1.2417 C.3       1 <0>        -0.1087
     18 C12         0.0021   -0.0041    0.0020 C.3       1 <0>        -0.1067
     19 H2          0.5168   -0.3566   -0.9040 H         1 <0>         0.0816
     20 C13        -1.4348   -0.5350    0.0170 C.3       1 <0>         0.1212
     21 C14        -0.0187    1.5258    0.0104 C.3       1 <0>        -0.1490
     22 C15         1.4958   -2.5089   -0.0580 C.3       1 <0>        -0.1547
     23 H3         -4.7082   -6.2432    2.0563 H         1 <0>         0.0701
     24 H4         -6.3961   -6.3139    1.4457 H         1 <0>         0.0733
     25 H5         -6.0008   -5.3055    2.8788 H         1 <0>         0.0729
     26 H6         -3.2888   -4.9781    0.7618 H         1 <0>         0.1342
     27 H7         -4.6348   -1.4980   -1.3021 H         1 <0>         0.1337
     28 H8         -8.4341   -3.0568    0.8422 H         1 <0>         0.0610
     29 H9         -7.7391   -3.8190    2.3128 H         1 <0>         0.0740
     30 H10        -8.1346   -4.8276    0.8801 H         1 <0>         0.0743
     31 H11        -8.1624   -1.8201   -0.1040 H         1 <0>         0.4163
     32 H12        -6.9435   -0.8021   -1.1566 H         1 <0>         0.4190
     33 H13        -1.1163   -2.3385    2.2019 H         1 <0>         0.0709
     34 H14        -0.6142   -3.6886    1.1287 H         1 <0>         0.0950
     35 H15         0.2139   -0.1764    2.1464 H         1 <0>         0.0652
     36 H16         1.7668   -0.1114    1.2459 H         1 <0>         0.0672
     37 H17        -1.9443   -0.2586   -0.9179 H         1 <0>         0.0926
     38 H18        -1.9808   -0.1093    0.8718 H         1 <0>         0.0702
     39 H19        -0.5507    1.8901   -0.8808 H         1 <0>         0.0587
     40 H20         1.0133    1.9066    0.0026 H         1 <0>         0.0601
     41 H21        -0.5336    1.8805    0.9154 H         1 <0>         0.0568
     42 H22         2.5210   -2.1108   -0.0781 H         1 <0>         0.0580
     43 H23         0.9434   -2.1439   -0.9365 H         1 <0>         0.0551
     44 H24         1.5289   -3.6082   -0.0764 H         1 <0>         0.0608
@<TRIPOS>BOND
     1    1    2 1
     2    1   23 1
     3    1   24 1
     4    1   25 1
     5    2    7 ar
     6    2    3 ar
     7    3    4 ar
     8    3   26 1
     9    4    5 ar
    10    4   10 1
    11    5    6 ar
    12    5   27 1
    13    6    7 ar
    14    6    9 1
    15    7    8 1
    16    8   28 1
    17    8   29 1
    18    8   30 1
    19    9   31 1
    20    9   32 1
    21   10   11 2
    22   10   12 2
    23   10   13 1
    24   13   20 1
    25   13   14 1
    26   14   15 1
    27   14   33 1
    28   14   34 1
    29   15   16 1
    30   15   17 1
    31   15   22 1
    32   17   18 1
    33   17   35 1
    34   17   36 1
    35   18   19 1
    36   18   20 1
    37   18   21 1
    38   20   37 1
    39   20   38 1
    40   21   39 1
    41   21   40 1
    42   21   41 1
    43   22   42 1
    44   22   43 1
    45   22   44 1
@<TRIPOS>MOLECULE
ZINC37194651
   32    34     0     0     0
SMALL
USER_CHARGES

@<TRIPOS>ATOM
      1 C1          0.4222    1.7004   -0.0598 C.ar      1 <0>        -0.0923
      2 C2          1.6691    2.2945   -0.0041 C.ar      1 <0>        -0.0924
      3 C3          2.8169    1.5180    0.0205 C.ar      1 <0>        -0.0413
      4 C4          2.7126    0.1366   -0.0105 C.ar      1 <0>        -0.1388
      5 C5          1.4412   -0.4692   -0.0669 C.ar      1 <0>        -0.1386
      6 C6          0.3024    0.3199   -0.0914 C.ar      1 <0>        -0.0414
      7 C7          1.6881   -1.9264   -0.0876 C.2       1 <0>         0.5743
      8 O1          0.8348   -2.7894   -0.1350 O.2       1 <0>        -0.4453
      9 N1          3.0161   -2.1368   -0.0458 N.am      1 <0>        -0.5610
     10 C8          3.6891   -0.9730    0.0010 C.2       1 <0>         0.5754
     11 O2          4.8969   -0.8538    0.0450 O.2       1 <0>        -0.4472
     12 C9          3.6464   -3.4593   -0.0501 C.3       1 <0>         0.1308
     13 S1          3.8778   -4.0133   -1.7618 S.3       1 <0>        -0.1191
     14 C10         4.6714   -5.5781   -1.5999 C.ar      1 <0>        -0.1695
     15 C11         4.9054   -6.1118   -0.3413 C.ar      1 <0>        -0.0548
     16 C12         5.5278   -7.3400   -0.2156 C.ar      1 <0>        -0.1909
     17 C13         5.9191   -8.0405   -1.3440 C.ar      1 <0>         0.1507
     18 C14         5.6894   -7.5142   -2.6038 C.ar      1 <0>        -0.2195
     19 C15         5.0605   -6.2857   -2.7373 C.ar      1 <0>         0.2726
     20 N2          4.8219   -5.7542   -4.0103 N.pl3     1 <0>        -0.8625
     21 F1          6.5269   -9.2402   -1.2154 F         1 <0>        -0.1342
     22 H1         -0.4650    2.3161   -0.0743 H         1 <0>         0.1456
     23 H2          1.7494    3.3713    0.0200 H         1 <0>         0.1456
     24 H3          3.7885    1.9876    0.0633 H         1 <0>         0.1449
     25 H4         -0.6744   -0.1389   -0.1346 H         1 <0>         0.1450
     26 H5          4.6147   -3.4019    0.4472 H         1 <0>         0.1228
     27 H6          3.0082   -4.1677    0.4780 H         1 <0>         0.1210
     28 H7          4.6017   -5.5677    0.5408 H         1 <0>         0.1303
     29 H8          5.7096   -7.7539    0.7652 H         1 <0>         0.1391
     30 H9          5.9962   -8.0623   -3.4824 H         1 <0>         0.1413
     31 H10         4.3855   -4.8928   -4.1022 H         1 <0>         0.4042
     32 H11         5.0930   -6.2472   -4.8004 H         1 <0>         0.4051
@<TRIPOS>BOND
     1    1    6 ar
     2    1    2 ar
     3    1   22 1
     4    2    3 ar
     5    2   23 1
     6    3    4 ar
     7    3   24 1
     8    4   10 1
     9    4    5 ar
    10    5    6 ar
    11    5    7 1
    12    6   25 1
    13    7    8 2
    14    7    9 am
    15    9   10 am
    16    9   12 1
    17   10   11 2
    18   12   13 1
    19   12   26 1
    20   12   27 1
    21   13   14 1
    22   14   19 ar
    23   14   15 ar
    24   15   16 ar
    25   15   28 1
    26   16   17 ar
    27   16   29 1
    28   17   18 ar
    29   17   21 1
    30   18   19 ar
    31   18   30 1
    32   19   20 1
    33   20   31 1
    34   20   32 1
@<TRIPOS>MOLECULE
ZINC42039098
   36    38     0     0     0
SMALL
USER_CHARGES

@<TRIPOS>ATOM
      1 C1          0.7341    1.4033   -0.0680 C.3       1 <0>        -0.0837
      2 C2          0.3256   -0.0468   -0.0315 C.2       1 <0>         0.1863
      3 N1         -0.6194   -0.6013   -0.7417 N.2       1 <0>        -0.2904
      4 N2         -0.7031   -1.8536   -0.4642 N.2       1 <0>        -0.2795
      5 C3          0.1924   -2.1674    0.4463 C.2       1 <0>         0.2210
      6 N3          0.8782   -1.0206    0.7439 N.pl3     1 <0>        -0.4615
      7 C4          1.9773   -0.8711    1.7010 C.3       1 <0>         0.1285
      8 C5          2.7520    0.4323    1.4166 C.3       1 <0>        -0.1456
      9 C6          4.2301    0.0647    1.6981 C.3       1 <0>        -0.1232
     10 C7          4.3319   -1.3822    1.1548 C.3       1 <0>        -0.1238
     11 C8          2.9818   -2.0247    1.5345 C.3       1 <0>        -0.1357
     12 C9          0.4190   -3.5050    1.0326 C.ar      1 <0>        -0.0814
     13 C10         0.5107   -3.6576    2.4166 C.ar      1 <0>        -0.0304
     14 C11         0.7220   -4.9090    2.9591 C.ar      1 <0>        -0.0863
     15 C12         0.8441   -6.0164    2.1351 C.ar      1 <0>        -0.0317
     16 C13         0.7552   -5.8787    0.7628 C.ar      1 <0>        -0.1095
     17 C14         0.5371   -4.6271    0.2021 C.ar      1 <0>         0.2778
     18 N4          0.4413   -4.4869   -1.1825 N.pl3     1 <0>        -0.8473
     19 Cl1         0.9102   -7.2725   -0.2605 Cl        1 <0>        -0.0487
     20 Cl2         0.8357   -5.0965    4.6812 Cl        1 <0>        -0.0565
     21 H1          1.4255    1.5653   -0.8950 H         1 <0>         0.0903
     22 H2         -0.1495    2.0264   -0.2058 H         1 <0>         0.0937
     23 H3          1.2220    1.6670    0.8704 H         1 <0>         0.0920
     24 H4          1.5869   -0.8598    2.7186 H         1 <0>         0.1003
     25 H5          2.6249    0.7324    0.3764 H         1 <0>         0.0935
     26 H6          2.4220    1.2262    2.0867 H         1 <0>         0.0868
     27 H7          4.9032    0.7291    1.1562 H         1 <0>         0.0780
     28 H8          4.4377    0.0912    2.7678 H         1 <0>         0.0757
     29 H9          4.4600   -1.3751    0.0724 H         1 <0>         0.0680
     30 H10         5.1549   -1.9125    1.6338 H         1 <0>         0.0760
     31 H11         3.0796   -2.5728    2.4716 H         1 <0>         0.0851
     32 H12         2.6516   -2.6959    0.7417 H         1 <0>         0.0781
     33 H13         0.4169   -2.7973    3.0626 H         1 <0>         0.1368
     34 H14         1.0100   -6.9920    2.5675 H         1 <0>         0.1494
     35 H15         0.2927   -3.6111   -1.5722 H         1 <0>         0.4117
     36 H16         0.5234   -5.2652   -1.7556 H         1 <0>         0.4062
@<TRIPOS>BOND
     1    1    2 1
     2    1   21 1
     3    1   22 1
     4    1   23 1
     5    2    6 1
     6    2    3 2
     7    3    4 1
     8    4    5 2
     9    5    6 1
    10    5   12 1
    11    6    7 1
    12    7   11 1
    13    7    8 1
    14    7   24 1
    15    8    9 1
    16    8   25 1
    17    8   26 1
    18    9   10 1
    19    9   27 1
    20    9   28 1
    21   10   11 1
    22   10   29 1
    23   10   30 1
    24   11   31 1
    25   11   32 1
    26   12   17 ar
    27   12   13 ar
    28   13   14 ar
    29   13   33 1
    30   14   15 ar
    31   14   20 1
    32   15   16 ar
    33   15   34 1
    34   16   17 ar
    35   16   19 1
    36   17   18 1
    37   18   35 1
    38   18   36 1
@<TRIPOS>MOLECULE
ZINC49254849
   35    36     0     0     0
SMALL
USER_CHARGES

@<TRIPOS>ATOM
      1 C1          0.0658    1.2432   -0.6261 C.ar      1 <0>        -0.0793
      2 C2          1.2513    1.9527   -0.6219 C.ar      1 <0>        -0.1092
      3 C3          2.3815    1.4102   -0.0263 C.ar      1 <0>         0.1891
      4 C4          2.3173    0.1539    0.5645 C.ar      1 <0>        -0.0645
      5 C5          1.1290   -0.5513    0.5574 C.ar      1 <0>        -0.0780
      6 C6          0.0039   -0.0073   -0.0375 C.ar      1 <0>        -0.0476
      7 Cl1        -1.4877   -0.8953   -0.0444 Cl        1 <0>        -0.0573
      8 Cl2         3.7285   -0.5289    1.3101 Cl        1 <0>        -0.0540
      9 N1          3.5846    2.1273   -0.0212 N.am      1 <0>        -0.6801
     10 C7          3.5682    3.4716   -0.1160 C.2       1 <0>         0.7072
     11 O1          2.5093    4.0691   -0.1029 O.2       1 <0>        -0.5674
     12 N2          4.7255    4.1536   -0.2254 N.am      1 <0>        -0.7319
     13 C8          4.7077    5.6148   -0.3285 C.3       1 <0>         0.1456
     14 C9          6.1420    6.1356   -0.4409 C.3       1 <0>         0.0780
     15 H1          6.7297    5.7665    0.3995 H         1 <0>         0.0663
     16 C10         6.1321    7.6664   -0.4237 C.3       1 <0>        -0.1483
     17 C11         7.5645    8.1805   -0.5971 C.3       1 <0>        -0.1225
     18 C12         8.1433    7.6176   -1.8988 C.3       1 <0>        -0.1589
     19 C13         8.0755    6.0886   -1.8591 C.3       1 <0>         0.0608
     20 O2          6.7206    5.6779   -1.6648 O.3       1 <0>        -0.3768
     21 H2         -0.8149    1.6672   -1.0856 H         1 <0>         0.1446
     22 H3          1.2987    2.9286   -1.0820 H         1 <0>         0.1669
     23 H4          1.0782   -1.5278    1.0159 H         1 <0>         0.1484
     24 H5          4.4295    1.6564    0.0507 H         1 <0>         0.4114
     25 H6          5.5702    3.6769   -0.2358 H         1 <0>         0.4025
     26 H7          4.1437    5.9098   -1.2133 H         1 <0>         0.0805
     27 H8          4.2368    6.0360    0.5597 H         1 <0>         0.0864
     28 H9          5.5112    8.0359   -1.2398 H         1 <0>         0.0777
     29 H10         5.7317    8.0174    0.5274 H         1 <0>         0.0787
     30 H11         7.5582    9.2696   -0.6418 H         1 <0>         0.0717
     31 H12         8.1741    7.8524    0.2449 H         1 <0>         0.0646
     32 H13         7.5630    7.9860   -2.7448 H         1 <0>         0.0732
     33 H14         9.1813    7.9336   -2.0026 H         1 <0>         0.0751
     34 H15         8.4466    5.6837   -2.8006 H         1 <0>         0.0962
     35 H16         8.6887    5.7188   -1.0373 H         1 <0>         0.0510
@<TRIPOS>BOND
     1    1    6 ar
     2    1    2 ar
     3    1   21 1
     4    2    3 ar
     5    2   22 1
     6    3    4 ar
     7    3    9 1
     8    4    5 ar
     9    4    8 1
    10    5    6 ar
    11    5   23 1
    12    6    7 1
    13    9   10 am
    14    9   24 1
    15   10   11 2
    16   10   12 am
    17   12   13 1
    18   12   25 1
    19   13   14 1
    20   13   26 1
    21   13   27 1
    22   14   15 1
    23   14   20 1
    24   14   16 1
    25   16   17 1
    26   16   28 1
    27   16   29 1
    28   17   18 1
    29   17   30 1
    30   17   31 1
    31   18   19 1
    32   18   32 1
    33   18   33 1
    34   19   20 1
    35   19   34 1
    36   19   35 1
@<TRIPOS>MOLECULE
ZINC05681022
   48    52     0     0     0
SMALL
USER_CHARGES
N-(benzo[1,3]dioxol-5-ylmethyl)-2-(dioxoBLAHyl)-acetamide
@<TRIPOS>ATOM
      1 C1          2.9803    6.0076    1.2037 C.ar      1 <0>        -0.0864
      2 C2          2.9612    7.3903    1.2165 C.ar      1 <0>        -0.1017
      3 C3          2.9408    8.0943    0.0239 C.ar      1 <0>         0.0429
      4 C4          2.9391    7.4058   -1.1871 C.ar      1 <0>         0.0307
      5 C5          2.9632    6.0209   -1.1924 C.ar      1 <0>        -0.0804
      6 C6          2.9783    5.3246    0.0022 C.ar      1 <0>        -0.1040
      7 C7          2.9987    3.8178   -0.0061 C.3       1 <0>         0.1677
      8 N1          1.6243    3.3107    0.0043 N.am      1 <0>        -0.7225
      9 C8          1.3960    1.9824   -0.0006 C.2       1 <0>         0.5034
     10 O1          2.3284    1.2069   -0.0137 O.2       1 <0>        -0.5242
     11 C9         -0.0178    1.4608    0.0101 C.3       1 <0>         0.0985
     12 N2          0.0021   -0.0041    0.0020 N.am      1 <0>        -0.5638
     13 C10         0.0230   -0.7689    1.1143 C.2       1 <0>         0.5441
     14 O2          0.0300   -0.3906    2.2661 O.2       1 <0>        -0.4505
     15 C11         0.0369   -2.1943    0.6197 C.3       1 <0>         0.1935
     16 C12         1.2831   -2.9268    1.0945 C.3       1 <0>        -0.1176
     17 C13         1.1971   -4.4099    0.7186 C.3       1 <0>        -0.1090
     18 C14         0.0960   -5.0727    1.5594 C.3       1 <0>        -0.0496
     19 C15        -1.1264   -4.2161    1.5063 C.2       1 <0>        -0.1187
     20 C16        -1.2108   -2.9199    1.0940 C.2       1 <0>        -0.1369
     21 C17        -2.4757   -2.3347    1.1395 C.2       1 <0>        -0.1419
     22 C18        -3.5385   -3.0490    1.5749 C.2       1 <0>        -0.1700
     23 S1         -2.7911   -4.6268    1.9541 S.3       1 <0>         0.0748
     24 N3          0.0203   -2.0712   -0.8412 N.am      1 <0>        -0.7095
     25 C19        -0.0041   -0.7508   -1.1094 C.2       1 <0>         0.7102
     26 O3         -0.0258   -0.2896   -2.2337 O.2       1 <0>        -0.5358
     27 O4          2.9175    8.3145   -2.2054 O.3       1 <0>        -0.3069
     28 C20         3.3183    9.5645   -1.6137 C.3       1 <0>         0.2126
     29 O5          2.9203    9.4341   -0.2361 O.3       1 <0>        -0.3073
     30 H1          2.9966    5.4603    2.1346 H         1 <0>         0.1421
     31 H2          2.9626    7.9214    2.1569 H         1 <0>         0.1399
     32 H3          2.9660    5.4847   -2.1298 H         1 <0>         0.1388
     33 H4          3.5259    3.4567    0.8770 H         1 <0>         0.0844
     34 H5          3.5089    3.4662   -0.9029 H         1 <0>         0.0821
     35 H6          0.8786    3.9309    0.0148 H         1 <0>         0.4053
     36 H7         -0.5450    1.8219   -0.8730 H         1 <0>         0.1307
     37 H8         -0.5280    1.8123    0.9069 H         1 <0>         0.1278
     38 H9          2.1626   -2.4855    0.6255 H         1 <0>         0.0883
     39 H10         1.3662   -2.8344    2.1774 H         1 <0>         0.0938
     40 H11         0.9551   -4.5049   -0.3399 H         1 <0>         0.0714
     41 H12         2.1525   -4.8939    0.9213 H         1 <0>         0.0895
     42 H13        -0.1304   -6.0588    1.1538 H         1 <0>         0.0913
     43 H14         0.4327   -5.1703    2.5915 H         1 <0>         0.0948
     44 H15        -2.6069   -1.3093    0.8268 H         1 <0>         0.1242
     45 H16        -4.5704   -2.7447    1.6689 H         1 <0>         0.1907
     46 H17         0.0224   -2.7958   -1.4860 H         1 <0>         0.4412
     47 H18         4.3977    9.6956   -1.6898 H         1 <0>         0.0874
     48 H19         2.7962   10.3967   -2.0860 H         1 <0>         0.1348
@<TRIPOS>BOND
     1    1    6 ar
     2    1    2 ar
     3    1   30 1
     4    2    3 ar
     5    2   31 1
     6    3   29 1
     7    3    4 ar
     8    4    5 ar
     9    4   27 1
    10    5    6 ar
    11    5   32 1
    12    6    7 1
    13    7    8 1
    14    7   33 1
    15    7   34 1
    16    8    9 am
    17    8   35 1
    18    9   10 2
    19    9   11 1
    20   11   12 1
    21   11   36 1
    22   11   37 1
    23   12   25 am
    24   12   13 am
    25   13   14 2
    26   13   15 1
    27   15   20 1
    28   15   16 1
    29   15   24 1
    30   16   17 1
    31   16   38 1
    32   16   39 1
    33   17   18 1
    34   17   40 1
    35   17   41 1
    36   18   19 1
    37   18   42 1
    38   18   43 1
    39   19   23 1
    40   19   20 2
    41   20   21 1
    42   21   22 2
    43   21   44 1
    44   22   23 1
    45   22   45 1
    46   24   25 am
    47   24   46 1
    48   25   26 2
    49   27   28 1
    50   28   29 1
    51   28   47 1
    52   28   48 1
@<TRIPOS>MOLECULE
ZINC19714617
   49    52     0     0     0
SMALL
USER_CHARGES
(2S)-1-(4-fluorophenyl)sulfonyl-N-(6-methyl-1H-pyrazolo[5,4-b]pyridin-3-yl)piperidine-2-carboxamide
@<TRIPOS>ATOM
      1 C1          2.8355   -3.2054   -3.1558 C.3       1 <0>        -0.1096
      2 C2          2.0936   -2.0686   -2.5014 C.ar      1 <0>         0.2014
      3 C3          2.0271   -0.8422   -3.1476 C.ar      1 <0>        -0.2192
      4 C4          1.3545    0.1977   -2.5602 C.ar      1 <0>         0.0089
      5 C5          0.7544   -0.0228   -1.3164 C.ar      1 <0>        -0.2405
      6 C6          0.8598   -1.2923   -0.7150 C.ar      1 <0>         0.3265
      7 N1          1.5250   -2.2623   -1.3315 N.ar      1 <0>        -0.5096
      8 N2          0.1893   -1.2192    0.4755 N.pl3     1 <0>        -0.5015
      9 H1          0.1309   -2.1022    1.1289 H         1 <0>         0.4765
     10 N3         -0.3300    0.0690    0.6363 N.2       1 <0>        -0.2138
     11 C7         -0.0257    0.8067   -0.3981 C.2       1 <0>         0.3462
     12 N4         -0.3767    2.1475   -0.5898 N.am      1 <0>        -0.6217
     13 C8         -1.1076    2.7924    0.3410 C.2       1 <0>         0.5111
     14 O1         -1.4610    2.2105    1.3448 O.2       1 <0>        -0.4880
     15 C9         -1.4856    4.2365    0.1345 C.3       1 <0>         0.1461
     16 H2         -0.9400    4.6346   -0.7338 H         1 <0>         0.1029
     17 C10        -1.1761    5.0351    1.4047 C.3       1 <0>        -0.1216
     18 C11        -1.6890    6.4675    1.2395 C.3       1 <0>        -0.1164
     19 C12        -3.2060    6.4480    1.0390 C.3       1 <0>        -0.1409
     20 C13        -3.5386    5.6655   -0.2353 C.3       1 <0>         0.1179
     21 N5         -2.9246    4.3336   -0.1462 N.pl3     1 <0>        -0.9868
     22 S1         -3.8368    2.9680   -0.3587 S.o2      1 <0>         2.6853
     23 O2         -4.9273    3.3338   -1.1932 O.2       1 <0>        -0.9498
     24 O3         -2.9336    1.9251   -0.6989 O.2       1 <0>        -0.9358
     25 C14        -4.5214    2.5495    1.2100 C.ar      1 <0>        -0.6923
     26 C15        -3.9593    1.5333    1.9600 C.ar      1 <0>         0.0402
     27 C16        -4.4924    1.2074    3.1926 C.ar      1 <0>        -0.1779
     28 C17        -5.5964    1.8920    3.6717 C.ar      1 <0>         0.1581
     29 C18        -6.1618    2.9061    2.9173 C.ar      1 <0>        -0.1820
     30 C19        -5.6237    3.2338    1.6873 C.ar      1 <0>         0.0068
     31 F1         -6.1213    1.5711    4.8745 F         1 <0>        -0.1302
     32 H3          3.2442   -2.8695   -4.1202 H         1 <0>         0.0801
     33 H4          2.1455   -4.0457   -3.3227 H         1 <0>         0.0828
     34 H5          3.6582   -3.5308   -2.5022 H         1 <0>         0.0827
     35 H6          2.5024   -0.7081   -4.1080 H         1 <0>         0.1413
     36 H7          1.2895    1.1607   -3.0448 H         1 <0>         0.1364
     37 H8         -0.0561    2.6752   -1.5002 H         1 <0>         0.4447
     38 H9         -1.6733    4.5630    2.2649 H         1 <0>         0.0856
     39 H10        -0.0891    5.0504    1.5725 H         1 <0>         0.0819
     40 H11        -1.4463    7.0500    2.1405 H         1 <0>         0.0737
     41 H12        -1.2099    6.9298    0.3639 H         1 <0>         0.0697
     42 H13        -3.6839    5.9640    1.9035 H         1 <0>         0.0707
     43 H14        -3.5767    7.4794    0.9450 H         1 <0>         0.0824
     44 H15        -4.6300    5.5674   -0.3309 H         1 <0>         0.0947
     45 H16        -3.1407    6.2019   -1.1094 H         1 <0>         0.0842
     46 H17        -3.1007    0.9966    1.5843 H         1 <0>         0.1677
     47 H18        -4.0506    0.4162    3.7802 H         1 <0>         0.1441
     48 H19        -7.0232    3.4406    3.2898 H         1 <0>         0.1449
     49 H20        -6.0647    4.0245    1.0985 H         1 <0>         0.1421
@<TRIPOS>BOND
     1    1    2 1
     2    1   32 1
     3    1   33 1
     4    1   34 1
     5    2    7 ar
     6    2    3 ar
     7    3    4 ar
     8    3   35 1
     9    4    5 ar
    10    4   36 1
    11    5   11 1
    12    5    6 ar
    13    6    7 ar
    14    6    8 1
    15    8    9 1
    16    8   10 1
    17   10   11 2
    18   11   12 1
    19   12   13 am
    20   12   37 1
    21   13   14 2
    22   13   15 1
    23   15   16 1
    24   15   21 1
    25   15   17 1
    26   17   18 1
    27   17   38 1
    28   17   39 1
    29   18   19 1
    30   18   40 1
    31   18   41 1
    32   19   20 1
    33   19   42 1
    34   19   43 1
    35   20   21 1
    36   20   44 1
    37   20   45 1
    38   21   22 1
    39   22   23 2
    40   22   24 2
    41   22   25 1
    42   25   30 ar
    43   25   26 ar
    44   26   27 ar
    45   26   46 1
    46   27   28 ar
    47   27   47 1
    48   28   29 ar
    49   28   31 1
    50   29   30 ar
    51   29   48 1
    52   30   49 1
@<TRIPOS>MOLECULE
ZINC35056712
   48    51     0     0     0
SMALL
USER_CHARGES

@<TRIPOS>ATOM
      1 C1         -1.0349    1.4921   -0.5641 C.3       1 <0>        -0.1706
      2 C2         -1.0144   -0.0147   -0.5724 C.2       1 <0>         0.5300
      3 O1         -1.9109   -0.6362   -0.0423 O.2       1 <0>        -0.5518
      4 N1          0.0001   -0.6716   -1.1688 N.am      1 <0>        -0.6973
      5 C3          0.0199   -2.1365   -1.1769 C.3       1 <0>         0.1002
      6 H1         -0.4801   -2.5129   -0.2845 H         1 <0>         0.1158
      7 C4         -0.7024   -2.6520   -2.4252 C.3       1 <0>         0.1080
      8 H2         -0.7313   -3.7414   -2.4051 H         1 <0>         0.0889
      9 C5          0.0489   -2.1841   -3.6724 C.3       1 <0>         0.0677
     10 H3         -0.4248   -2.6030   -4.5603 H         1 <0>         0.0847
     11 C6          1.5059   -2.6527   -3.6016 C.3       1 <0>         0.0296
     12 H4          1.5438   -3.7415   -3.6362 H         1 <0>         0.0946
     13 C7          2.2652   -2.0705   -4.8007 C.3       1 <0>         0.0713
     14 O2          2.1006   -0.6490   -4.8044 O.3       1 <0>        -0.3718
     15 C8          0.7368   -0.2248   -4.8642 C.3       1 <0>         0.3289
     16 H5          0.2851   -0.5837   -5.7889 H         1 <0>         0.0857
     17 O3          0.0211   -0.7567   -3.7463 O.3       1 <0>        -0.3486
     18 C9          0.6773    1.2806   -4.8278 C.2       1 <0>        -0.0104
     19 C10         1.2352    2.1119   -5.7262 C.2       1 <0>        -0.1716
     20 C11         0.9345    3.4286   -5.3078 C.2       1 <0>        -0.2157
     21 C12         0.2109    3.3231   -4.1788 C.2       1 <0>        -0.0283
     22 O4          0.0533    2.0197   -3.8960 O.3       1 <0>        -0.1558
     23 O5          2.0981   -2.1883   -2.3868 O.3       1 <0>        -0.3566
     24 C13         1.4697   -2.6292   -1.1983 C.3       1 <0>         0.2416
     25 H6          2.0000   -2.2373   -0.3304 H         1 <0>         0.1280
     26 O6          1.4885   -4.0577   -1.1649 O.3       1 <0>        -0.3148
     27 C14         2.6940   -4.6545   -0.9678 C.ar      1 <0>         0.1419
     28 C15         3.8335   -3.8809   -0.8043 C.ar      1 <0>        -0.1695
     29 C16         5.0577   -4.4891   -0.6041 C.ar      1 <0>        -0.0651
     30 C17         5.1481   -5.8694   -0.5666 C.ar      1 <0>        -0.0570
     31 C18         4.0131   -6.6436   -0.7294 C.ar      1 <0>        -0.0672
     32 C19         2.7852   -6.0389   -0.9242 C.ar      1 <0>        -0.0556
     33 Cl1         1.3599   -7.0102   -1.1213 Cl        1 <0>        -0.0410
     34 Cl2         6.6879   -6.6307   -0.3155 Cl        1 <0>        -0.0533
     35 O7         -2.0361   -2.1397   -2.4504 O.3       1 <0>        -0.5401
     36 H7         -0.5179    1.8576    0.3232 H         1 <0>         0.0904
     37 H8         -0.5342    1.8672   -1.4567 H         1 <0>         0.0843
     38 H9         -2.0673    1.8415   -0.5528 H         1 <0>         0.0932
     39 H10         0.7171   -0.1745   -1.5927 H         1 <0>         0.4103
     40 H11         3.3240   -2.3155   -4.7166 H         1 <0>         0.1190
     41 H12         1.8640   -2.4872   -5.7246 H         1 <0>         0.0808
     42 H13         1.8041    1.8281   -6.5992 H         1 <0>         0.1518
     43 H14         1.2296    4.3435   -5.8001 H         1 <0>         0.1526
     44 H15        -0.1803    4.1468   -3.6001 H         1 <0>         0.2070
     45 H16         3.7639   -2.8036   -0.8338 H         1 <0>         0.1517
     46 H17         5.9450   -3.8867   -0.4772 H         1 <0>         0.1450
     47 H18         4.0857   -7.7208   -0.7002 H         1 <0>         0.1518
     48 H19        -2.5703   -2.3956   -1.6860 H         1 <0>         0.3875
@<TRIPOS>BOND
     1    1    2 1
     2    1   36 1
     3    1   37 1
     4    1   38 1
     5    2    3 2
     6    2    4 am
     7    4    5 1
     8    4   39 1
     9    5    6 1
    10    5   24 1
    11    5    7 1
    12    7    8 1
    13    7    9 1
    14    7   35 1
    15    9   10 1
    16    9   17 1
    17    9   11 1
    18   11   12 1
    19   11   13 1
    20   11   23 1
    21   13   14 1
    22   13   40 1
    23   13   41 1
    24   14   15 1
    25   15   16 1
    26   15   17 1
    27   15   18 1
    28   18   22 1
    29   18   19 2
    30   19   20 1
    31   19   42 1
    32   20   21 2
    33   20   43 1
    34   21   22 1
    35   21   44 1
    36   23   24 1
    37   24   25 1
    38   24   26 1
    39   26   27 1
    40   27   32 ar
    41   27   28 ar
    42   28   29 ar
    43   28   45 1
    44   29   30 ar
    45   29   46 1
    46   30   31 ar
    47   30   34 1
    48   31   32 ar
    49   31   47 1
    50   32   33 1
    51   35   48 1
@<TRIPOS>MOLECULE
ZINC38692860
   49    51     0     0     0
SMALL
USER_CHARGES

@<TRIPOS>ATOM
      1 C1          3.5239  -11.0511   -5.5653 C.3       1 <0>        -0.1714
      2 C2          2.6602  -10.4200   -4.5038 C.2       1 <0>         0.5105
      3 O1          2.0116  -11.1194   -3.7547 O.2       1 <0>        -0.5153
      4 N1          2.6086   -9.0783   -4.3868 N.am      1 <0>        -0.6791
      5 C3          1.7339   -8.4893   -3.4671 C.ar      1 <0>         0.2049
      6 C4          1.1092   -7.2872   -3.7725 C.ar      1 <0>        -0.1660
      7 C5          0.2464   -6.7084   -2.8625 C.ar      1 <0>         0.0058
      8 C6          0.0043   -7.3246   -1.6485 C.ar      1 <0>        -0.6930
      9 C7          0.6252   -8.5214   -1.3412 C.ar      1 <0>         0.0050
     10 C8          1.4843   -9.1085   -2.2494 C.ar      1 <0>        -0.1419
     11 S1         -1.0971   -6.5829   -0.4903 S.o2      1 <0>         2.6933
     12 O2         -0.6581   -6.9822    0.8008 O.2       1 <0>        -0.9487
     13 O3         -1.2208   -5.2176   -0.8644 O.2       1 <0>        -0.9464
     14 N2         -2.5851   -7.2728   -0.7186 N.pl3     1 <0>        -1.0556
     15 C9         -3.2533   -7.1058   -1.9337 C.ar      1 <0>         0.1808
     16 C10        -3.3130   -5.8519   -2.5304 C.ar      1 <0>        -0.1747
     17 C11        -3.9748   -5.6876   -3.7299 C.ar      1 <0>        -0.0637
     18 C12        -4.5832   -6.7677   -4.3491 C.ar      1 <0>        -0.1183
     19 C13        -4.5228   -8.0212   -3.7586 C.ar      1 <0>         0.1994
     20 C14        -3.8548   -8.1916   -2.5523 C.ar      1 <0>        -0.1863
     21 N3         -5.1206   -9.1303   -4.3673 N.pl3     1 <0>        -0.9370
     22 C15        -6.0638   -8.9119   -5.4724 C.3       1 <0>         0.1023
     23 C16        -5.4501   -7.8664   -6.4127 C.3       1 <0>        -0.1319
     24 C17        -5.3010   -6.5475   -5.6548 C.3       1 <0>        -0.0768
     25 S2         -4.7702  -10.6642   -3.8508 S.o2      1 <0>         2.5957
     26 O4         -5.1719  -11.5079   -4.9213 O.2       1 <0>        -0.9433
     27 O5         -3.4098  -10.6079   -3.4441 O.2       1 <0>        -0.9335
     28 C18        -5.8423  -10.9277   -2.4115 C.3       1 <0>        -0.6731
     29 H1          2.9432  -11.1763   -6.4792 H         1 <0>         0.1007
     30 H2          4.3817  -10.4090   -5.7650 H         1 <0>         0.0849
     31 H3          3.8715  -12.0246   -5.2195 H         1 <0>         0.1005
     32 H4          3.1779   -8.5210   -4.9403 H         1 <0>         0.4163
     33 H5          1.2981   -6.8053   -4.7203 H         1 <0>         0.1371
     34 H6         -0.2395   -5.7734   -3.0992 H         1 <0>         0.1464
     35 H7          0.4343   -9.0000   -0.3920 H         1 <0>         0.1424
     36 H8          1.9649  -10.0458   -2.0110 H         1 <0>         0.1489
     37 H9         -2.9927   -7.7930   -0.0085 H         1 <0>         0.4281
     38 H10        -2.8410   -5.0051   -2.0544 H         1 <0>         0.1615
     39 H11        -4.0193   -4.7110   -4.1889 H         1 <0>         0.1367
     40 H12        -3.8074   -9.1686   -2.0944 H         1 <0>         0.1381
     41 H13        -6.2229   -9.8456   -6.0119 H         1 <0>         0.1082
     42 H14        -7.0125   -8.5448   -5.0809 H         1 <0>         0.0809
     43 H15        -4.4708   -8.2073   -6.7485 H         1 <0>         0.0743
     44 H16        -6.1031   -7.7212   -7.2733 H         1 <0>         0.0881
     45 H17        -6.2894   -6.1328   -5.4565 H         1 <0>         0.0808
     46 H18        -4.7323   -5.8449   -6.2639 H         1 <0>         0.0832
     47 H19        -6.8854  -10.8322   -2.7130 H         1 <0>         0.1331
     48 H20        -5.6705  -11.9258   -2.0083 H         1 <0>         0.1360
     49 H21        -5.6152  -10.1835   -1.6481 H         1 <0>         0.1319
@<TRIPOS>BOND
     1    1    2 1
     2    1   29 1
     3    1   30 1
     4    1   31 1
     5    2    3 2
     6    2    4 am
     7    4    5 1
     8    4   32 1
     9    5   10 ar
    10    5    6 ar
    11    6    7 ar
    12    6   33 1
    13    7    8 ar
    14    7   34 1
    15    8    9 ar
    16    8   11 1
    17    9   10 ar
    18    9   35 1
    19   10   36 1
    20   11   12 2
    21   11   13 2
    22   11   14 1
    23   14   15 1
    24   14   37 1
    25   15   20 ar
    26   15   16 ar
    27   16   17 ar
    28   16   38 1
    29   17   18 ar
    30   17   39 1
    31   18   24 1
    32   18   19 ar
    33   19   20 ar
    34   19   21 1
    35   20   40 1
    36   21   22 1
    37   21   25 1
    38   22   23 1
    39   22   41 1
    40   22   42 1
    41   23   24 1
    42   23   43 1
    43   23   44 1
    44   24   45 1
    45   24   46 1
    46   25   26 2
    47   25   27 2
    48   25   28 1
    49   28   47 1
    50   28   48 1
    51   28   49 1
@<TRIPOS>MOLECULE
ZINC45573772
   48    50     0     0     0
SMALL
USER_CHARGES

@<TRIPOS>ATOM
      1 C1         -0.2109    1.4936    0.0331 C.3       1 <0>        -0.1259
      2 C2         -0.0909   -0.0085    0.0130 C.2       1 <0>         0.1392
      3 C3         -0.1947   -0.6718   -1.1630 C.2       1 <0>        -0.2497
      4 C4         -0.0760   -2.0857   -1.1388 C.2       1 <0>         0.3877
      5 O1         -0.1588   -2.7488   -2.1608 O.2       1 <0>        -0.4427
      6 C5          0.1515   -2.7190    0.1697 C.2       1 <0>        -0.0250
      7 N1          0.2325   -1.9539    1.2379 N.2       1 <0>        -0.1598
      8 N2          0.1251   -0.6783    1.1719 N.pl3     1 <0>        -0.2827
      9 C6          0.2301    0.0594    2.3559 C.ar      1 <0>         0.1560
     10 C7          1.4477    0.6201    2.7212 C.ar      1 <0>        -0.0922
     11 C8          1.5479    1.3476    3.8905 C.ar      1 <0>        -0.0735
     12 C9          0.4379    1.5180    4.6980 C.ar      1 <0>        -0.0933
     13 C10        -0.7752    0.9609    4.3376 C.ar      1 <0>        -0.0610
     14 C11        -0.8840    0.2377    3.1660 C.ar      1 <0>        -0.1613
     15 C12        -2.2083   -0.3630    2.7704 C.3       1 <0>         0.5029
     16 F1         -3.1699   -0.0493    3.7368 F         1 <0>        -0.1688
     17 F2         -2.6044    0.1555    1.5328 F         1 <0>        -0.1727
     18 F3         -2.0798   -1.7528    2.6742 F         1 <0>        -0.1661
     19 C13         0.2859   -4.1851    0.2826 C.2       1 <0>         0.5919
     20 O2          0.2087   -4.8809   -0.7114 O.2       1 <0>        -0.4947
     21 N3          0.4940   -4.7520    1.4875 N.am      1 <0>        -0.5071
     22 N4          0.6216   -6.1430    1.5946 N.am      1 <0>        -0.5128
     23 C14         0.8297   -6.7099    2.7995 C.2       1 <0>         0.5982
     24 O3          0.9069   -6.0139    3.7938 O.2       1 <0>        -0.5380
     25 C15         0.9639   -8.1732    2.9122 C.2       1 <0>        -0.2435
     26 C16         0.9038   -9.1577    1.8219 C.2       1 <0>        -0.1893
     27 C17         1.0761  -10.3571    2.3982 C.2       1 <0>        -0.0035
     28 O4          1.2330  -10.1911    3.7207 O.3       1 <0>        -0.1704
     29 C18         1.1756   -8.8968    4.0491 C.2       1 <0>         0.0942
     30 C19         1.3172   -8.3329    5.4394 C.3       1 <0>        -0.0862
     31 C20         1.0906  -11.6796    1.6758 C.3       1 <0>        -0.0772
     32 H1          0.7834    1.9381   -0.0111 H         1 <0>         0.0966
     33 H2         -0.7947    1.8230   -0.8264 H         1 <0>         0.1028
     34 H3         -0.7081    1.8061    0.9513 H         1 <0>         0.0826
     35 H4         -0.3628   -0.1421   -2.0890 H         1 <0>         0.1731
     36 H5          2.3149    0.4868    2.0914 H         1 <0>         0.1464
     37 H6          2.4940    1.7837    4.1750 H         1 <0>         0.1498
     38 H7          0.5191    2.0872    5.6122 H         1 <0>         0.1494
     39 H8         -1.6399    1.0956    4.9706 H         1 <0>         0.1535
     40 H9          0.5556   -4.1968    2.2805 H         1 <0>         0.4380
     41 H10         0.5600   -6.6982    0.8016 H         1 <0>         0.4342
     42 H11         0.7519   -8.9566    0.7717 H         1 <0>         0.1598
     43 H12         0.3362   -8.2792    5.9113 H         1 <0>         0.0920
     44 H13         1.9690   -8.9780    6.0285 H         1 <0>         0.0814
     45 H14         1.7489   -7.3335    5.3839 H         1 <0>         0.1098
     46 H15         2.1100  -11.9156    1.3703 H         1 <0>         0.0852
     47 H16         0.7204  -12.4605    2.3400 H         1 <0>         0.0797
     48 H17         0.4520  -11.6193    0.7945 H         1 <0>         0.0928
@<TRIPOS>BOND
     1    1    2 1
     2    1   32 1
     3    1   33 1
     4    1   34 1
     5    2    8 1
     6    2    3 2
     7    3    4 1
     8    3   35 1
     9    4    5 2
    10    4    6 1
    11    6    7 2
    12    6   19 1
    13    7    8 1
    14    8    9 1
    15    9   14 ar
    16    9   10 ar
    17   10   11 ar
    18   10   36 1
    19   11   12 ar
    20   11   37 1
    21   12   13 ar
    22   12   38 1
    23   13   14 ar
    24   13   39 1
    25   14   15 1
    26   15   16 1
    27   15   17 1
    28   15   18 1
    29   19   20 2
    30   19   21 am
    31   21   22 1
    32   21   40 1
    33   22   23 am
    34   22   41 1
    35   23   24 2
    36   23   25 1
    37   25   29 2
    38   25   26 1
    39   26   27 2
    40   26   42 1
    41   27   28 1
    42   27   31 1
    43   28   29 1
    44   29   30 1
    45   30   43 1
    46   30   44 1
    47   30   45 1
    48   31   46 1
    49   31   47 1
    50   31   48 1
@<TRIPOS>MOLECULE
ZINC64064478
   51    55     0     0     0
SMALL
USER_CHARGES

@<TRIPOS>ATOM
      1 C1          0.0042    1.3772    0.2218 C.ar      1 <0>        -0.3315
      2 C2          1.2011    2.0609    0.0017 C.ar      1 <0>         0.4940
      3 N1          2.3121    1.3638   -0.2149 N.ar      1 <0>        -0.6235
      4 C3          2.2877    0.0394   -0.2225 C.ar      1 <0>         0.6238
      5 N2          1.1672   -0.6365   -0.0168 N.ar      1 <0>        -0.6078
      6 C4          0.0220   -0.0055    0.2057 C.ar      1 <0>         0.2935
      7 Cl1        -1.4381   -0.9053    0.4742 Cl        1 <0>        -0.0180
      8 N3          3.4623   -0.6556   -0.4516 N.pl3     1 <0>        -0.8166
      9 N4          1.2306    3.4460    0.0084 N.pl3     1 <0>        -0.5914
     10 C5          2.5086    4.1739   -0.0061 C.3       1 <0>         0.1284
     11 C6          2.4648    5.2121   -1.1323 C.3       1 <0>         0.0409
     12 N5          1.2720    6.0543   -0.9715 N.3       1 <0>        -0.5200
     13 C7          0.0404    5.2636   -1.0976 C.3       1 <0>         0.0408
     14 C8         -0.0152    4.2276    0.0240 C.3       1 <0>         0.1291
     15 C9          1.2820    7.1693   -1.9279 C.3       1 <0>         0.1134
     16 C10         0.1854    8.1417   -1.5773 C.2       1 <0>         0.4436
     17 N6         -0.5688    7.8793   -0.5372 N.2       1 <0>        -0.5794
     18 C11        -1.5680    8.6777   -0.1475 C.2       1 <0>         0.5496
     19 O1         -2.2471    8.4055    0.8279 O.2       1 <0>        -0.4497
     20 C12        -1.8261    9.9175   -0.9473 C.2       1 <0>        -0.3190
     21 C13        -2.8080   10.8218   -0.7778 C.2       1 <0>         0.0727
     22 C14        -3.9695   10.6453    0.1968 C.3       1 <0>        -0.0973
     23 C15        -5.2594   10.8002   -0.6199 C.3       1 <0>        -0.1208
     24 C16        -5.2339   12.1096   -1.4052 C.3       1 <0>        -0.1239
     25 C17        -4.0947   12.1086   -2.4289 C.3       1 <0>        -0.1005
     26 C18        -2.7624   12.0529   -1.6767 C.3       1 <0>        -0.0725
     27 H1         -2.5689   12.9679   -1.1169 H         1 <0>         0.1643
     28 S1         -1.4061   11.6297   -2.8342 S.3       1 <0>         0.0139
     29 C19        -0.9021   10.1012   -2.0855 C.2       1 <0>         0.2832
     30 N7          0.0372    9.2190   -2.3322 N.2       1 <0>        -0.5374
     31 H2         -0.9139    1.9157    0.4049 H         1 <0>         0.1494
     32 H3          4.2897   -0.1728   -0.6040 H         1 <0>         0.4159
     33 H4          3.4582   -1.6256   -0.4597 H         1 <0>         0.4169
     34 H5          2.6544    4.6768    0.9500 H         1 <0>         0.0758
     35 H6          3.3260    3.4751   -0.1838 H         1 <0>         0.1025
     36 H7          3.3584    5.8347   -1.0881 H         1 <0>         0.0916
     37 H8          2.4233    4.7027   -2.0951 H         1 <0>         0.0423
     38 H9         -0.8243    5.9236   -1.0281 H         1 <0>         0.1082
     39 H10         0.0326    4.7535   -2.0608 H         1 <0>         0.0327
     40 H11        -0.8656    3.5643   -0.1339 H         1 <0>         0.0890
     41 H12        -0.1167    4.7357    0.9829 H         1 <0>         0.0861
     42 H13         2.2455    7.6770   -1.8841 H         1 <0>         0.1188
     43 H14         1.1190    6.7855   -2.9351 H         1 <0>         0.0775
     44 H15        -3.9305    9.6537    0.6476 H         1 <0>         0.1137
     45 H16        -3.9250   11.4103    0.9721 H         1 <0>         0.1042
     46 H17        -5.3497    9.9647   -1.3141 H         1 <0>         0.0695
     47 H18        -6.1158   10.8003    0.0544 H         1 <0>         0.0865
     48 H19        -6.1835   12.2342   -1.9256 H         1 <0>         0.0840
     49 H20        -5.0935   12.9400   -0.7132 H         1 <0>         0.0749
     50 H21        -4.1858   11.2369   -3.0769 H         1 <0>         0.0841
     51 H22        -4.1394   13.0187   -3.0270 H         1 <0>         0.0941
@<TRIPOS>BOND
     1    1    6 ar
     2    1    2 ar
     3    1   31 1
     4    2    3 ar
     5    2    9 1
     6    3    4 ar
     7    4    5 ar
     8    4    8 1
     9    5    6 ar
    10    6    7 1
    11    8   32 1
    12    8   33 1
    13    9   14 1
    14    9   10 1
    15   10   11 1
    16   10   34 1
    17   10   35 1
    18   11   12 1
    19   11   36 1
    20   11   37 1
    21   12   13 1
    22   12   15 1
    23   13   14 1
    24   13   38 1
    25   13   39 1
    26   14   40 1
    27   14   41 1
    28   15   16 1
    29   15   42 1
    30   15   43 1
    31   16   30 1
    32   16   17 2
    33   17   18 1
    34   18   19 2
    35   18   20 1
    36   20   29 1
    37   20   21 2
    38   21   26 1
    39   21   22 1
    40   22   23 1
    41   22   44 1
    42   22   45 1
    43   23   24 1
    44   23   46 1
    45   23   47 1
    46   24   25 1
    47   24   48 1
    48   24   49 1
    49   25   26 1
    50   25   50 1
    51   25   51 1
    52   26   27 1
    53   26   28 1
    54   28   29 1
    55   29   30 2
@<TRIPOS>MOLECULE
ZINC09339083
   46    47     0     0     0
SMALL
USER_CHARGES
2-[2-(2-acetylphenyl)aminoacetyl]amino-N-(4-bromo-2-methyl-phenyl)-acetamide
@<TRIPOS>ATOM
      1 C1          1.0648    5.2674   -1.2730 C.3       1 <0>        -0.1179
      2 C2          2.1961    4.5109   -0.6256 C.ar      1 <0>        -0.1014
      3 C3          3.4893    4.9872   -0.7195 C.ar      1 <0>        -0.0737
      4 C4          4.5290    4.2900   -0.1307 C.ar      1 <0>        -0.0983
      5 C5          4.2760    3.1173    0.5591 C.ar      1 <0>        -0.0776
      6 C6          2.9844    2.6396    0.6609 C.ar      1 <0>        -0.1101
      7 C7          1.9387    3.3373    0.0704 C.ar      1 <0>         0.1543
      8 N1          0.6287    2.8552    0.1716 N.am      1 <0>        -0.6655
      9 C8          0.3975    1.5274    0.1733 C.2       1 <0>         0.5125
     10 O1          1.3282    0.7498    0.1670 O.2       1 <0>        -0.5121
     11 C9         -1.0175    1.0090    0.1830 C.3       1 <0>         0.1024
     12 N2         -1.0009   -0.4559    0.1831 N.am      1 <0>        -0.7171
     13 C10        -2.1603   -1.1430    0.1910 C.2       1 <0>         0.5129
     14 O2         -3.2174   -0.5486    0.1982 O.2       1 <0>        -0.5215
     15 C11        -2.1432   -2.6499    0.1911 C.3       1 <0>         0.0975
     16 N3         -3.5187   -3.1539    0.2005 N.pl3     1 <0>        -0.7158
     17 C12        -3.7567   -4.5203    0.2023 C.ar      1 <0>         0.2774
     18 C13        -2.6997   -5.4139    0.0786 C.ar      1 <0>        -0.2195
     19 C14        -2.9383   -6.7725    0.0859 C.ar      1 <0>        -0.0327
     20 C15        -4.2316   -7.2593    0.2057 C.ar      1 <0>        -0.1958
     21 C16        -5.2938   -6.3922    0.3236 C.ar      1 <0>        -0.0216
     22 C17        -5.0698   -5.0096    0.3235 C.ar      1 <0>        -0.2602
     23 C18        -6.1963   -4.0789    0.4482 C.2       1 <0>         0.3995
     24 O3         -6.0097   -2.8842    0.3500 O.2       1 <0>        -0.4709
     25 C19        -7.5855   -4.6065    0.6985 C.3       1 <0>        -0.1896
     26 Br1         6.2991    4.9410   -0.2680 Br        1 <0>        -0.0466
     27 H1          0.6598    5.9909   -0.5655 H         1 <0>         0.0772
     28 H2          1.4350    5.7898   -2.1551 H         1 <0>         0.0768
     29 H3          0.2815    4.5686   -1.5666 H         1 <0>         0.0674
     30 H4          3.6895    5.9023   -1.2569 H         1 <0>         0.1383
     31 H5          5.0895    2.5750    1.0178 H         1 <0>         0.1375
     32 H6          2.7875    1.7242    1.1991 H         1 <0>         0.1488
     33 H7         -0.1129    3.4767    0.2406 H         1 <0>         0.4173
     34 H8         -1.5415    1.3664   -0.7034 H         1 <0>         0.1077
     35 H9         -1.5293    1.3665    1.0765 H         1 <0>         0.1076
     36 H10        -0.1554   -0.9313    0.1773 H         1 <0>         0.4155
     37 H11        -1.6314   -3.0075   -0.7024 H         1 <0>         0.0975
     38 H12        -1.6192   -3.0073    1.0775 H         1 <0>         0.0976
     39 H13        -4.2631   -2.5320    0.2056 H         1 <0>         0.4282
     40 H14        -1.6897   -5.0443   -0.0193 H         1 <0>         0.1271
     41 H15        -2.1124   -7.4623   -0.0064 H         1 <0>         0.1269
     42 H16        -4.4061   -8.3251    0.2060 H         1 <0>         0.1260
     43 H17        -6.2986   -6.7773    0.4158 H         1 <0>         0.1325
     44 H18        -7.7456   -4.6697    1.6836 H         1 <0>         0.0874
     45 H19        -8.3163   -3.9308    0.2543 H         1 <0>         0.0877
     46 H20        -7.6850   -5.5950    0.2501 H         1 <0>         0.0867
@<TRIPOS>BOND
     1    1    2 1
     2    1   27 1
     3    1   28 1
     4    1   29 1
     5    2    7 ar
     6    2    3 ar
     7    3    4 ar
     8    3   30 1
     9    4    5 ar
    10    4   26 1
    11    5    6 ar
    12    5   31 1
    13    6    7 ar
    14    6   32 1
    15    7    8 1
    16    8    9 am
    17    8   33 1
    18    9   10 2
    19    9   11 1
    20   11   12 1
    21   11   34 1
    22   11   35 1
    23   12   13 am
    24   12   36 1
    25   13   14 2
    26   13   15 1
    27   15   16 1
    28   15   37 1
    29   15   38 1
    30   16   17 1
    31   16   39 1
    32   17   22 ar
    33   17   18 ar
    34   18   19 ar
    35   18   40 1
    36   19   20 ar
    37   19   41 1
    38   20   21 ar
    39   20   42 1
    40   21   22 ar
    41   21   43 1
    42   22   23 1
    43   23   24 2
    44   23   25 1
    45   25   44 1
    46   25   45 1
    47   25   46 1
@<TRIPOS>MOLECULE
ZINC15039871
   46    48     0     0     0
SMALL
USER_CHARGES
4-[(5Z)-5-[(5-chloro-2-hydroxy-phenyl)methylene]-4-oxo-2-thioxo-thiazolidin-3-yl]-N-(4-hydroxyphenyl)butanamide
@<TRIPOS>ATOM
      1 C1          8.7916   -6.4594    5.5045 C.ar      1 <0>        -0.1279
      2 C2          9.0253   -6.7441    6.8354 C.ar      1 <0>        -0.1255
      3 C3          8.0003   -6.6203    7.7619 C.ar      1 <0>         0.0910
      4 C4          6.7414   -6.2050    7.3531 C.ar      1 <0>        -0.1248
      5 C5          6.5078   -5.9144    6.0235 C.ar      1 <0>        -0.1027
      6 C6          7.5333   -6.0381    5.0956 C.ar      1 <0>         0.1359
      7 N1          7.2970   -5.7435    3.7464 N.am      1 <0>        -0.6753
      8 C7          6.4472   -4.7523    3.4119 C.2       1 <0>         0.5148
      9 O1          5.9572   -4.0562    4.2760 O.2       1 <0>        -0.5148
     10 C8          6.1059   -4.5088    1.9644 C.3       1 <0>        -0.1335
     11 C9          5.1289   -3.3359    1.8611 C.3       1 <0>        -0.1188
     12 C10         4.7824   -3.0887    0.3915 C.3       1 <0>         0.0825
     13 N2          3.8468   -1.9657    0.2926 N.am      1 <0>        -0.5197
     14 C11         4.3218   -0.7384    0.1628 C.2       1 <0>         0.5468
     15 O2          5.5179   -0.5168    0.1225 O.2       1 <0>        -0.4527
     16 C12         3.3279    0.3493    0.0688 C.2       1 <0>        -0.2435
     17 C13         3.5186    1.6865   -0.0678 C.2       1 <0>         0.1003
     18 C14         2.3727    2.5699   -0.3149 C.ar      1 <0>        -0.1166
     19 C15         1.2073    2.0641   -0.9029 C.ar      1 <0>        -0.0707
     20 C16         0.1376    2.9016   -1.1373 C.ar      1 <0>        -0.0440
     21 C17         0.2065    4.2403   -0.7823 C.ar      1 <0>        -0.0645
     22 C18         1.3509    4.7524   -0.2017 C.ar      1 <0>        -0.1335
     23 C19         2.4385    3.9280    0.0367 C.ar      1 <0>         0.1569
     24 O3          3.5630    4.4308    0.6071 O.3       1 <0>        -0.4879
     25 Cl1        -1.3048    2.2758   -1.8731 Cl        1 <0>        -0.0479
     26 S1          1.8044   -0.5777    0.1921 S.3       1 <0>         0.0749
     27 C20         2.5207   -2.2070    0.3365 C.2       1 <0>         0.2685
     28 S2          1.7183   -3.7106    0.4987 S.2       1 <0>        -0.3231
     29 O4          8.2295   -6.9067    9.0712 O.3       1 <0>        -0.4984
     30 H1          9.5883   -6.5605    4.7825 H         1 <0>         0.1310
     31 H2         10.0052   -7.0676    7.1542 H         1 <0>         0.1337
     32 H3          5.9440   -6.1085    8.0750 H         1 <0>         0.1331
     33 H4          5.5278   -5.5907    5.7055 H         1 <0>         0.1373
     34 H5          7.7450   -6.2529    3.0531 H         1 <0>         0.4126
     35 H6          5.6458   -5.4031    1.5442 H         1 <0>         0.1076
     36 H7          7.0153   -4.2739    1.4113 H         1 <0>         0.1030
     37 H8          5.5890   -2.4416    2.2813 H         1 <0>         0.0791
     38 H9          4.2195   -3.5708    2.4143 H         1 <0>         0.0851
     39 H10         4.3222   -3.9831   -0.0287 H         1 <0>         0.1161
     40 H11         5.6917   -2.8539   -0.1616 H         1 <0>         0.1073
     41 H12         4.5135    2.1003    0.0054 H         1 <0>         0.1685
     42 H13         1.1479    1.0210   -1.1764 H         1 <0>         0.1487
     43 H14        -0.6383    4.8878   -0.9650 H         1 <0>         0.1481
     44 H15         1.3975    5.7973    0.0672 H         1 <0>         0.1505
     45 H16         4.2092    4.7682   -0.0282 H         1 <0>         0.4022
     46 H17         8.0651   -7.8301    9.3065 H         1 <0>         0.3904
@<TRIPOS>BOND
     1    1    6 ar
     2    1    2 ar
     3    1   30 1
     4    2    3 ar
     5    2   31 1
     6    3    4 ar
     7    3   29 1
     8    4    5 ar
     9    4   32 1
    10    5    6 ar
    11    5   33 1
    12    6    7 1
    13    7    8 am
    14    7   34 1
    15    8    9 2
    16    8   10 1
    17   10   11 1
    18   10   35 1
    19   10   36 1
    20   11   12 1
    21   11   37 1
    22   11   38 1
    23   12   13 1
    24   12   39 1
    25   12   40 1
    26   13   27 1
    27   13   14 am
    28   14   15 2
    29   14   16 1
    30   16   17 2
    31   16   26 1
    32   17   18 1
    33   17   41 1
    34   18   23 ar
    35   18   19 ar
    36   19   20 ar
    37   19   42 1
    38   20   21 ar
    39   20   25 1
    40   21   22 ar
    41   21   43 1
    42   22   23 ar
    43   22   44 1
    44   23   24 1
    45   24   45 1
    46   26   27 1
    47   27   28 2
    48   29   46 1
@<TRIPOS>MOLECULE
ZINC05995157
   45    47     0     0     0
SMALL
USER_CHARGES

@<TRIPOS>ATOM
      1 C1          0.5225    1.9843    2.1806 C.ar      1 <0>        -0.0591
      2 C2          1.5179    2.5733    1.4215 C.ar      1 <0>        -0.1554
      3 C3          2.5416    1.8054    0.9054 C.ar      1 <0>        -0.0218
      4 C4          2.5717    0.4327    1.1509 C.ar      1 <0>        -0.1056
      5 C5          1.5655   -0.1552    1.9173 C.ar      1 <0>         0.0110
      6 C6          0.5469    0.6233    2.4275 C.ar      1 <0>        -0.1488
      7 C7          3.6669   -0.3970    0.5997 C.2       1 <0>         0.6218
      8 N1          4.7092    0.1718    0.0668 N.2       1 <0>        -0.9427
      9 S1          5.8753   -0.7521   -0.6606 S.o2      1 <0>         2.6166
     10 O1          6.4491   -1.5586    0.3590 O.2       1 <0>        -0.9789
     11 O2          5.2848   -1.3062   -1.8282 O.2       1 <0>        -0.9541
     12 C8          7.1417    0.3438   -1.2083 C.ar      1 <0>        -0.6397
     13 C9          7.0756    0.8993   -2.4724 C.ar      1 <0>        -0.0017
     14 C10         8.0687    1.7589   -2.9026 C.ar      1 <0>        -0.1294
     15 C11         9.1291    2.0635   -2.0678 C.ar      1 <0>         0.0217
     16 C12         9.1946    1.5073   -0.8027 C.ar      1 <0>        -0.1301
     17 C13         8.1980    0.6522   -0.3715 C.ar      1 <0>        -0.0035
     18 Cl1        10.3771    3.1428   -2.6076 Cl        1 <0>        -0.0476
     19 N2          3.5825   -1.7761    0.6511 N.pl3     1 <0>        -0.7000
     20 C14         2.3978   -2.3867    0.4509 C.2       1 <0>         0.5269
     21 S2          1.0366   -1.4732   -0.0426 S.2       1 <0>        -0.5026
     22 N3          2.2846   -3.7164    0.6393 N.pl3     1 <0>        -0.5997
     23 C15         1.0867   -4.3695    0.3211 C.ar      1 <0>         0.0860
     24 C16         0.4231   -4.0692   -0.8596 C.ar      1 <0>        -0.0574
     25 C17        -0.7584   -4.7148   -1.1712 C.ar      1 <0>        -0.1151
     26 C18        -1.2819   -5.6603   -0.3088 C.ar      1 <0>        -0.0876
     27 C19        -0.6262   -5.9649    0.8697 C.ar      1 <0>        -0.1377
     28 C20         0.5617   -5.3264    1.1867 C.ar      1 <0>         0.1109
     29 O3          1.2107   -5.6289    2.3428 O.3       1 <0>        -0.4963
     30 H1         -0.2744    2.5902    2.5859 H         1 <0>         0.1265
     31 H2          1.4935    3.6363    1.2322 H         1 <0>         0.1301
     32 H3          3.3177    2.2662    0.3124 H         1 <0>         0.1394
     33 H4          1.5833   -1.2176    2.1104 H         1 <0>         0.1120
     34 H5         -0.2328    0.1693    3.0211 H         1 <0>         0.1272
     35 H6          6.2480    0.6611   -3.1242 H         1 <0>         0.1523
     36 H7          8.0172    2.1925   -3.8904 H         1 <0>         0.1494
     37 H8         10.0223    1.7445   -0.1506 H         1 <0>         0.1489
     38 H9          8.2467    0.2217    0.6178 H         1 <0>         0.1513
     39 H10         4.3760   -2.3042    0.8312 H         1 <0>         0.4194
     40 H11         3.0325   -4.2212    0.9952 H         1 <0>         0.4174
     41 H12         0.8296   -3.3308   -1.5348 H         1 <0>         0.1443
     42 H13        -1.2743   -4.4799   -2.0905 H         1 <0>         0.1358
     43 H14        -2.2057   -6.1621   -0.5563 H         1 <0>         0.1341
     44 H15        -1.0380   -6.7037    1.5412 H         1 <0>         0.1378
     45 H16         0.9433   -5.0866    3.0974 H         1 <0>         0.3938
@<TRIPOS>BOND
     1    1    6 ar
     2    1    2 ar
     3    1   30 1
     4    2    3 ar
     5    2   31 1
     6    3    4 ar
     7    3   32 1
     8    4    5 ar
     9    4    7 1
    10    5    6 ar
    11    5   33 1
    12    6   34 1
    13    7    8 2
    14    7   19 1
    15    8    9 1
    16    9   10 2
    17    9   11 2
    18    9   12 1
    19   12   17 ar
    20   12   13 ar
    21   13   14 ar
    22   13   35 1
    23   14   15 ar
    24   14   36 1
    25   15   16 ar
    26   15   18 1
    27   16   17 ar
    28   16   37 1
    29   17   38 1
    30   19   20 1
    31   19   39 1
    32   20   21 2
    33   20   22 1
    34   22   23 1
    35   22   40 1
    36   23   28 ar
    37   23   24 ar
    38   24   25 ar
    39   24   41 1
    40   25   26 ar
    41   25   42 1
    42   26   27 ar
    43   26   43 1
    44   27   28 ar
    45   27   44 1
    46   28   29 1
    47   29   45 1
@<TRIPOS>MOLECULE
ZINC43741650
   60    63     0     0     0
SMALL
USER_CHARGES

@<TRIPOS>ATOM
      1 C1          0.3694    1.6414   -0.2357 C.3       1 <0>         0.0308
      2 O1          0.5897    0.2321   -0.3202 O.3       1 <0>        -0.3981
      3 C2          1.2176   -0.1864   -1.5337 C.3       1 <0>         0.2114
      4 H1          2.1489    0.3634   -1.6695 H         1 <0>         0.1079
      5 C3          1.5157   -1.6863   -1.4635 C.3       1 <0>         0.0585
      6 H2          2.1449   -1.8925   -0.5977 H         1 <0>         0.0796
      7 C4          0.1974   -2.4554   -1.3330 C.3       1 <0>         0.0863
      8 H3         -0.2944   -2.1803   -0.4000 H         1 <0>         0.0880
      9 C5         -0.7089   -2.0976   -2.5149 C.3       1 <0>         0.0964
     10 H4         -0.2385   -2.4178   -3.4446 H         1 <0>         0.0796
     11 C6         -0.9211   -0.5817   -2.5445 C.3       1 <0>         0.1100
     12 H5         -1.4280   -0.2678   -1.6320 H         1 <0>         0.0827
     13 O2          0.3457    0.0738   -2.6357 O.3       1 <0>        -0.3626
     14 C7         -1.7766   -0.2099   -3.7572 C.3       1 <0>         0.0636
     15 O3         -2.0720    1.1878   -3.7213 O.3       1 <0>        -0.3515
     16 C8         -2.8710    1.6413   -4.8158 C.3       1 <0>         0.2506
     17 C9         -2.1482    1.3728   -6.1106 C.ar      1 <0>        -0.1112
     18 C10        -2.8650    1.2083   -7.2810 C.ar      1 <0>        -0.1036
     19 C11        -2.2020    0.9619   -8.4687 C.ar      1 <0>        -0.1229
     20 C12        -0.8222    0.8806   -8.4860 C.ar      1 <0>        -0.1135
     21 C13        -0.1053    1.0460   -7.3157 C.ar      1 <0>        -0.1207
     22 C14        -0.7681    1.2966   -6.1288 C.ar      1 <0>        -0.0951
     23 C15        -4.1878    0.9084   -4.8141 C.ar      1 <0>        -0.1113
     24 C16        -5.3278    1.5364   -4.3486 C.ar      1 <0>        -0.0951
     25 C17        -6.5357    0.8641   -4.3471 C.ar      1 <0>        -0.1221
     26 C18        -6.6035   -0.4362   -4.8115 C.ar      1 <0>        -0.1105
     27 C19        -5.4636   -1.0639   -5.2779 C.ar      1 <0>        -0.1201
     28 C20        -4.2566   -0.3901   -5.2834 C.ar      1 <0>        -0.1003
     29 C21        -3.1197    3.1212   -4.6768 C.ar      1 <0>        -0.0677
     30 C22        -3.2976    3.9010   -5.8043 C.ar      1 <0>        -0.1039
     31 C23        -3.5257    5.2584   -5.6769 C.ar      1 <0>        -0.1204
     32 C24        -3.5763    5.8359   -4.4220 C.ar      1 <0>        -0.1153
     33 C25        -3.3993    5.0560   -3.2945 C.ar      1 <0>        -0.1235
     34 C26        -3.1755    3.6978   -3.4218 C.ar      1 <0>        -0.0931
     35 O4         -1.9691   -2.7546   -2.3663 O.3       1 <0>        -0.5556
     36 O5          0.4609   -3.8599   -1.3385 O.3       1 <0>        -0.5540
     37 O6          2.1925   -2.0949   -2.6539 O.3       1 <0>        -0.5344
     38 H6          1.3243    2.1630   -0.3002 H         1 <0>         0.0444
     39 H7         -0.2739    1.9585   -1.0565 H         1 <0>         0.0576
     40 H8         -0.1103    1.8779    0.7141 H         1 <0>         0.0895
     41 H9         -1.2311   -0.4426   -4.6718 H         1 <0>         0.0652
     42 H10        -2.7063   -0.7785   -3.7341 H         1 <0>         0.0862
     43 H11        -3.9431    1.2718   -7.2675 H         1 <0>         0.1234
     44 H12        -2.7621    0.8327   -9.3831 H         1 <0>         0.1230
     45 H13        -0.3042    0.6874   -9.4138 H         1 <0>         0.1219
     46 H14         0.9727    0.9821   -7.3292 H         1 <0>         0.1228
     47 H15        -0.2078    1.4295   -5.2151 H         1 <0>         0.1318
     48 H16        -5.2748    2.5523   -3.9858 H         1 <0>         0.1261
     49 H17        -7.4262    1.3545   -3.9828 H         1 <0>         0.1232
     50 H18        -7.5470   -0.9617   -4.8097 H         1 <0>         0.1228
     51 H19        -5.5166   -2.0799   -5.6404 H         1 <0>         0.1238
     52 H20        -3.3667   -0.8793   -5.6511 H         1 <0>         0.1210
     53 H21        -3.2581    3.4497   -6.7847 H         1 <0>         0.1250
     54 H22        -3.6641    5.8677   -6.5578 H         1 <0>         0.1231
     55 H23        -3.7538    6.8966   -4.3225 H         1 <0>         0.1220
     56 H24        -3.4385    5.5073   -2.3141 H         1 <0>         0.1232
     57 H25        -3.0408    3.0878   -2.5407 H         1 <0>         0.1281
     58 H26        -1.9086   -3.7192   -2.3356 H         1 <0>         0.3907
     59 H27         1.0352   -4.1552   -0.6187 H         1 <0>         0.3846
     60 H28         3.0349   -1.6437   -2.8020 H         1 <0>         0.3814
@<TRIPOS>BOND
     1    1    2 1
     2    1   38 1
     3    1   39 1
     4    1   40 1
     5    2    3 1
     6    3    4 1
     7    3   13 1
     8    3    5 1
     9    5    6 1
    10    5    7 1
    11    5   37 1
    12    7    8 1
    13    7    9 1
    14    7   36 1
    15    9   10 1
    16    9   11 1
    17    9   35 1
    18   11   12 1
    19   11   13 1
    20   11   14 1
    21   14   15 1
    22   14   41 1
    23   14   42 1
    24   15   16 1
    25   16   17 1
    26   16   23 1
    27   16   29 1
    28   17   22 ar
    29   17   18 ar
    30   18   19 ar
    31   18   43 1
    32   19   20 ar
    33   19   44 1
    34   20   21 ar
    35   20   45 1
    36   21   22 ar
    37   21   46 1
    38   22   47 1
    39   23   28 ar
    40   23   24 ar
    41   24   25 ar
    42   24   48 1
    43   25   26 ar
    44   25   49 1
    45   26   27 ar
    46   26   50 1
    47   27   28 ar
    48   27   51 1
    49   28   52 1
    50   29   34 ar
    51   29   30 ar
    52   30   31 ar
    53   30   53 1
    54   31   32 ar
    55   31   54 1
    56   32   33 ar
    57   32   55 1
    58   33   34 ar
    59   33   56 1
    60   34   57 1
    61   35   58 1
    62   36   59 1
    63   37   60 1
@<TRIPOS>MOLECULE
ZINC65150380
   58    61     0     0     0
SMALL
NO_CHARGES

@<TRIPOS>ATOM
      1 C1          2.0473   -0.2613   -0.8394 C.3       1 <0>        -0.1816
      2 C2          0.6430   -0.1644   -0.2400 C.3       1 <0>        -0.0102
      3 N1          0.6503   -0.7254    1.1177 N.4       1 <0>        -0.3072
      4 C3         -0.6694   -0.5336    1.7339 C.3       1 <0>        -0.0089
      5 C4         -0.6282   -1.0114    3.1868 C.3       1 <0>        -0.1788
      6 C5          0.9417   -2.0913    1.0560 C.ar      1 <0>        -0.1148
      7 C6          0.1170   -2.9412    0.3417 C.ar      1 <0>        -0.0811
      8 C7          0.4021   -4.2909    0.2788 C.ar      1 <0>        -0.1176
      9 C8          1.5187   -4.7945    0.9335 C.ar      1 <0>         0.1785
     10 C9          2.3449   -3.9385    1.6494 C.ar      1 <0>        -0.1035
     11 C10         2.0569   -2.5887    1.7045 C.ar      1 <0>        -0.0740
     12 C11         3.5575   -4.4807    2.3613 C.3       1 <0>        -0.1215
     13 N2          1.8101   -6.1617    0.8721 N.am      1 <0>        -0.6512
     14 C12         0.8200   -7.0534    0.6694 C.2       1 <0>         0.5093
     15 O1         -0.3101   -6.6670    0.4582 O.2       1 <0>        -0.5196
     16 C13         1.1170   -8.5304    0.7053 C.3       1 <0>        -0.1387
     17 H1          1.5122   -8.7622    1.6943 H         1 <0>         0.1004
     18 C14        -0.1929   -9.2682    0.5475 C.2       1 <0>         0.0613
     19 C15        -0.3156  -10.1585   -0.5193 C.2       1 <0>        -0.1900
     20 C16        -1.4845  -10.9831   -0.8721 C.2       1 <0>        -0.0584
     21 C17        -1.3782  -11.7740   -1.9498 C.2       1 <0>        -0.1910
     22 S1          0.2519  -11.5112   -2.5941 S.3       1 <0>         0.0303
     23 C18         0.8337  -10.3156   -1.4114 C.2       1 <0>         0.1348
     24 N3          1.9781   -9.6739   -1.2768 N.2       1 <0>        -0.5857
     25 C19         2.2088   -8.8059   -0.3039 C.2       1 <0>         0.4839
     26 O2          3.2823   -8.2390   -0.2238 O.2       1 <0>        -0.5544
     27 C20        -2.4265  -12.6966   -2.5020 C.3       1 <0>        -0.0305
     28 C21        -3.5153  -12.8891   -1.4380 C.3       1 <0>        -0.1133
     29 C22        -3.9129  -11.5154   -0.8895 C.3       1 <0>        -0.1200
     30 C23        -2.7703  -10.9456   -0.0489 C.3       1 <0>        -0.0542
     31 O3         -1.2062   -9.0730    1.4075 O.3       1 <0>        -0.4377
     32 H2          2.3880   -1.2960   -0.8015 H         1 <0>         0.0849
     33 H3          2.0241    0.0759   -1.8756 H         1 <0>         0.0986
     34 H4          2.7304    0.3672   -0.2680 H         1 <0>         0.0743
     35 H5          0.3364    0.8808   -0.1996 H         1 <0>         0.1235
     36 H6         -0.0564   -0.7245   -0.8607 H         1 <0>         0.1240
     37 H7         -0.9330    0.5237    1.7065 H         1 <0>         0.1233
     38 H8         -1.4144   -1.1081    1.1834 H         1 <0>         0.1245
     39 H9          0.1775   -0.5010    3.7144 H         1 <0>         0.0734
     40 H10        -1.5788   -0.7866    3.6703 H         1 <0>         0.0979
     41 H11        -0.4539   -2.0872    3.2106 H         1 <0>         0.0836
     42 H12        -0.7511   -2.5490   -0.1672 H         1 <0>         0.1304
     43 H13        -0.2427   -4.9542   -0.2786 H         1 <0>         0.1666
     44 H14         2.7014   -1.9217    2.2577 H         1 <0>         0.1342
     45 H15         4.4158   -4.4527    1.6899 H         1 <0>         0.0810
     46 H16         3.7646   -3.8719    3.2414 H         1 <0>         0.0744
     47 H17         3.3692   -5.5098    2.6674 H         1 <0>         0.0725
     48 H18         2.7247   -6.4678    0.9754 H         1 <0>         0.4285
     49 H19        -2.8644  -12.2583   -3.3988 H         1 <0>         0.0739
     50 H20        -1.9764  -13.6594   -2.7438 H         1 <0>         0.0744
     51 H21        -4.3848  -13.3692   -1.8871 H         1 <0>         0.0672
     52 H22        -3.1299  -13.5087   -0.6282 H         1 <0>         0.0655
     53 H23        -4.1239  -10.8408   -1.7192 H         1 <0>         0.0619
     54 H24        -4.8037  -11.6164   -0.2696 H         1 <0>         0.0620
     55 H25        -2.6445  -11.5462    0.8521 H         1 <0>         0.0685
     56 H26        -2.9981   -9.9157    0.2257 H         1 <0>         0.0780
     57 H27        -1.0107   -8.4352    2.1075 H         1 <0>         0.3806
     58 H28         1.3514   -0.2566    1.6715 H         1 <0>         0.4176
@<TRIPOS>BOND
     1    1    2 1
     2    1   32 1
     3    1   33 1
     4    1   34 1
     5    2    3 1
     6    2   35 1
     7    2   36 1
     8    3    4 1
     9    3    6 1
    10    3   58 1
    11    4    5 1
    12    4   37 1
    13    4   38 1
    14    5   39 1
    15    5   40 1
    16    5   41 1
    17    6   11 ar
    18    6    7 ar
    19    7    8 ar
    20    7   42 1
    21    8    9 ar
    22    8   43 1
    23    9   10 ar
    24    9   13 1
    25   10   11 ar
    26   10   12 1
    27   11   44 1
    28   12   45 1
    29   12   46 1
    30   12   47 1
    31   13   14 am
    32   13   48 1
    33   14   15 2
    34   14   16 1
    35   16   17 1
    36   16   25 1
    37   16   18 1
    38   18   19 2
    39   18   31 1
    40   19   23 1
    41   19   20 1
    42   20   30 1
    43   20   21 2
    44   21   22 1
    45   21   27 1
    46   22   23 1
    47   23   24 2
    48   24   25 1
    49   25   26 2
    50   27   28 1
    51   27   49 1
    52   27   50 1
    53   28   29 1
    54   28   51 1
    55   28   52 1
    56   29   30 1
    57   29   53 1
    58   29   54 1
    59   30   55 1
    60   30   56 1
    61   31   57 1
@<TRIPOS>MOLECULE
ZINC39444107
   61    65     0     0     0
SMALL
USER_CHARGES

@<TRIPOS>ATOM
      1 C1         -0.0170    1.3783    0.0033 C.ar      1 <0>        -0.1430
      2 C2          1.1692    2.0891    0.0160 C.ar      1 <0>        -0.0799
      3 C3          2.3772    1.4200    0.0026 C.ar      1 <0>        -0.1833
      4 C4          2.3998    0.0310   -0.0236 C.ar      1 <0>         0.1873
      5 C5          1.2061   -0.6799   -0.0363 C.ar      1 <0>        -0.1500
      6 C6          0.0018   -0.0043   -0.0229 C.ar      1 <0>        -0.0800
      7 N1          3.6198   -0.6491   -0.0377 N.pl3     1 <0>        -0.5648
      8 C7          3.8175   -2.1061    0.0500 C.3       1 <0>         0.3836
      9 H1          3.4300   -2.4889    0.9942 H         1 <0>         0.1325
     10 N2          5.2809   -2.2658   -0.0116 N.pl3     1 <0>        -0.6364
     11 N3          5.8081   -0.9735   -0.1242 N.2       1 <0>        -0.2737
     12 C8          4.8825   -0.0856   -0.1432 C.2       1 <0>         0.2696
     13 C9          5.1373    1.3949   -0.2624 C.3       1 <0>         0.1999
     14 N4          6.5677    1.6286   -0.4754 N.pl3     1 <0>        -0.7406
     15 C10         7.0492    2.9329   -0.6164 C.ar      1 <0>         0.2183
     16 C11         6.1735    4.0089   -0.5490 C.ar      1 <0>        -0.1884
     17 C12         6.6521    5.2969   -0.6882 C.ar      1 <0>        -0.0592
     18 C13         8.0028    5.5159   -0.8950 C.ar      1 <0>        -0.0885
     19 C14         8.8775    4.4458   -0.9626 C.ar      1 <0>        -0.0596
     20 C15         8.4052    3.1560   -0.8184 C.ar      1 <0>        -0.1771
     21 Cl1         8.6008    7.1362   -1.0707 Cl        1 <0>        -0.0734
     22 S1          3.0219   -2.9425   -1.3493 S.3       1 <0>        -0.1904
     23 C16         3.8454   -2.2413   -2.8055 C.3       1 <0>        -0.1135
     24 C17         3.2704   -2.8593   -4.0540 C.2       1 <0>         0.5493
     25 O1          2.3918   -3.6907   -3.9696 O.2       1 <0>        -0.4486
     26 N5          3.7328   -2.4879   -5.2642 N.am      1 <0>        -0.5546
     27 N6          3.1983   -3.0624   -6.4248 N.2       1 <0>        -0.1259
     28 C18         3.6474   -2.7016   -7.6005 C.2       1 <0>         0.0348
     29 C19         3.1124   -3.2766   -8.7622 C.2       1 <0>         0.1294
     30 C20         3.4789   -3.0102  -10.0792 C.ar      1 <0>        -0.1464
     31 C21         4.4365   -2.1403  -10.6463 C.ar      1 <0>        -0.0251
     32 C22         4.5806   -2.0851  -11.9942 C.ar      1 <0>        -0.1400
     33 C23         3.8013   -2.8720  -12.8474 C.ar      1 <0>         0.0414
     34 C24         2.8643   -3.7281  -12.3742 C.ar      1 <0>        -0.1996
     35 C25         2.6548   -3.8419  -10.9739 C.ar      1 <0>         0.3144
     36 N7          1.8228   -4.5848  -10.2751 N.pl3     1 <0>        -0.5885
     37 C26         2.0210   -4.3207   -8.8467 C.3       1 <0>         0.0705
     38 H2         -0.9603    1.9041    0.0184 H         1 <0>         0.1271
     39 H3          1.1509    3.1688    0.0361 H         1 <0>         0.1312
     40 H4          3.3032    1.9757    0.0122 H         1 <0>         0.1360
     41 H5          1.2201   -1.7596   -0.0571 H         1 <0>         0.1340
     42 H6         -0.9264   -0.5562   -0.0324 H         1 <0>         0.1301
     43 H7          5.7785   -3.0979    0.0194 H         1 <0>         0.4576
     44 H8          4.5743    1.7936   -1.1064 H         1 <0>         0.0938
     45 H9          4.8201    1.8931    0.6537 H         1 <0>         0.0971
     46 H10         7.1806    0.8781   -0.5186 H         1 <0>         0.4133
     47 H11         5.1192    3.8385   -0.3883 H         1 <0>         0.1274
     48 H12         5.9717    6.1339   -0.6359 H         1 <0>         0.1341
     49 H13         9.9311    4.6196   -1.1241 H         1 <0>         0.1345
     50 H14         9.0889    2.3214   -0.8667 H         1 <0>         0.1305
     51 H15         3.6878   -1.1630   -2.8281 H         1 <0>         0.1175
     52 H16         4.9138   -2.4514   -2.7551 H         1 <0>         0.1225
     53 H17         4.4357   -1.8228   -5.3317 H         1 <0>         0.4067
     54 H18         4.4300   -1.9611   -7.6756 H         1 <0>         0.1598
     55 H19         5.0511   -1.5214  -10.0095 H         1 <0>         0.1563
     56 H20         5.3151   -1.4167  -12.4185 H         1 <0>         0.1565
     57 H21         3.9503   -2.7948  -13.9143 H         1 <0>         0.1612
     58 H22         2.2785   -4.3227  -13.0596 H         1 <0>         0.1611
     59 H23         2.3320   -5.2310   -8.3340 H         1 <0>         0.1783
     60 H24         1.1002   -3.9375   -8.4069 H         1 <0>         0.1777
     61 H25         1.1822   -5.2114  -10.6466 H         1 <0>         0.4552
@<TRIPOS>BOND
     1    1    6 ar
     2    1    2 ar
     3    1   38 1
     4    2    3 ar
     5    2   39 1
     6    3    4 ar
     7    3   40 1
     8    4    5 ar
     9    4    7 1
    10    5    6 ar
    11    5   41 1
    12    6   42 1
    13    7   12 1
    14    7    8 1
    15    8    9 1
    16    8   10 1
    17    8   22 1
    18   10   11 1
    19   10   43 1
    20   11   12 2
    21   12   13 1
    22   13   14 1
    23   13   44 1
    24   13   45 1
    25   14   15 1
    26   14   46 1
    27   15   20 ar
    28   15   16 ar
    29   16   17 ar
    30   16   47 1
    31   17   18 ar
    32   17   48 1
    33   18   19 ar
    34   18   21 1
    35   19   20 ar
    36   19   49 1
    37   20   50 1
    38   22   23 1
    39   23   24 1
    40   23   51 1
    41   23   52 1
    42   24   25 2
    43   24   26 am
    44   26   27 1
    45   26   53 1
    46   27   28 2
    47   28   29 1
    48   28   54 1
    49   29   37 1
    50   29   30 2
    51   30   35 ar
    52   30   31 ar
    53   31   32 ar
    54   31   55 1
    55   32   33 ar
    56   32   56 1
    57   33   34 ar
    58   33   57 1
    59   34   35 ar
    60   34   58 1
    61   35   36 2
    62   36   37 1
    63   36   61 1
    64   37   59 1
    65   37   60 1
@<TRIPOS>MOLECULE
ZINC39664366
   75    79     0     0     0
SMALL
USER_CHARGES

@<TRIPOS>ATOM
      1 C1         -0.9569    1.9130   -0.6304 C.3       1 <0>        -0.1175
      2 C2         -0.7809    0.4179   -0.5621 C.ar      1 <0>        -0.1277
      3 C3         -0.7491   -0.3268   -1.7274 C.ar      1 <0>        -0.0408
      4 C4         -0.5881   -1.6992   -1.6762 C.ar      1 <0>        -0.1605
      5 C5         -0.4579   -2.3390   -0.4577 C.ar      1 <0>         0.1696
      6 C6         -0.4889   -1.5937    0.7257 C.ar      1 <0>        -0.2035
      7 C7         -0.6461   -0.2047    0.6643 C.ar      1 <0>         0.1579
      8 F1         -0.6715    0.5251    1.8010 F         1 <0>        -0.1209
      9 C8         -0.3508   -2.2678    2.0308 C.2       1 <0>         0.6062
     10 O1          0.7511   -2.4252    2.5202 O.2       1 <0>        -0.5115
     11 N1         -1.4460   -2.7092    2.6806 N.am      1 <0>        -0.6084
     12 C9         -2.8594   -2.6160    2.2454 C.3       1 <0>         0.1157
     13 C10        -3.4865   -3.9647    2.6640 C.3       1 <0>        -0.1136
     14 H1         -4.5083   -3.8160    3.0131 H         1 <0>         0.1176
     15 C11        -2.5970   -4.4715    3.8116 C.3       1 <0>        -0.0716
     16 C12        -1.5081   -3.4033    3.9892 C.3       1 <0>         0.1074
     17 C13        -3.4148   -4.6118    5.0919 C.3       1 <0>        -0.1338
     18 C14        -2.5227   -5.1721    6.2031 C.3       1 <0>        -0.0101
     19 N2         -1.9895   -6.4771    5.7941 N.4       1 <0>        -0.5046
     20 C15        -1.1286   -6.3191    4.6157 C.3       1 <0>        -0.0091
     21 C16        -1.9618   -5.8073    3.4373 C.3       1 <0>        -0.1466
     22 C17        -3.4629   -4.9348    1.5110 C.2       1 <0>         0.5137
     23 O2         -2.6022   -4.8459    0.6612 O.2       1 <0>        -0.5045
     24 N3         -4.3983   -5.9012    1.4242 N.am      1 <0>        -0.7264
     25 C18        -4.3754   -6.8442    0.3033 C.3       1 <0>         0.1276
     26 C19        -5.5926   -7.7672    0.3884 C.3       1 <0>         0.1126
     27 H2         -6.5025   -7.1675    0.4125 H         1 <0>         0.0585
     28 C20        -5.5057   -8.5989    1.6421 C.ar      1 <0>        -0.0822
     29 C21        -4.6926   -9.7163    1.6753 C.ar      1 <0>        -0.0881
     30 C22        -4.6129  -10.4792    2.8254 C.ar      1 <0>        -0.1200
     31 C23        -5.3460  -10.1243    3.9423 C.ar      1 <0>        -0.1209
     32 C24        -6.1584   -9.0064    3.9094 C.ar      1 <0>        -0.1225
     33 C25        -6.2348   -8.2411    2.7608 C.ar      1 <0>        -0.1232
     34 N4         -5.6199   -8.6511   -0.7846 N.3       1 <0>        -0.5243
     35 C26        -5.6146   -7.8722   -2.0315 C.3       1 <0>         0.0107
     36 C27        -5.5831   -8.8303   -3.2252 C.3       1 <0>         0.0633
     37 O3         -6.7010   -9.7188   -3.1466 O.3       1 <0>        -0.3811
     38 C28        -6.7372  -10.4936   -1.9451 C.3       1 <0>         0.0633
     39 C29        -6.7804   -9.5524   -0.7384 C.3       1 <0>         0.0193
     40 F2         -0.3016   -3.6800   -0.4099 F         1 <0>        -0.1106
     41 H3          0.0202    2.3911   -0.6993 H         1 <0>         0.0822
     42 H4         -1.5495    2.1693   -1.5086 H         1 <0>         0.0807
     43 H5         -1.4688    2.2600    0.2672 H         1 <0>         0.0737
     44 H6         -0.8510    0.1666   -2.6827 H         1 <0>         0.1524
     45 H7         -0.5644   -2.2731   -2.5909 H         1 <0>         0.1520
     46 H8         -3.3595   -1.7908    2.7523 H         1 <0>         0.0924
     47 H9         -2.9166   -2.4897    1.1642 H         1 <0>         0.0961
     48 H10        -0.5506   -3.8715    4.2174 H         1 <0>         0.0901
     49 H11        -1.7885   -2.7047    4.7776 H         1 <0>         0.0881
     50 H12        -3.7959   -3.6348    5.3891 H         1 <0>         0.1224
     51 H13        -4.2494   -5.2910    4.9180 H         1 <0>         0.0982
     52 H14        -1.6974   -4.4844    6.3877 H         1 <0>         0.1334
     53 H15        -3.1085   -5.2888    7.1149 H         1 <0>         0.1405
     54 H16        -1.4519   -6.8716    6.5514 H         1 <0>         0.4341
     55 H17        -0.3365   -5.6040    4.8380 H         1 <0>         0.1343
     56 H18        -0.6866   -7.2813    4.3572 H         1 <0>         0.1385
     57 H19        -2.7442   -6.5296    3.2040 H         1 <0>         0.0974
     58 H20        -1.3184   -5.6733    2.5677 H         1 <0>         0.1236
     59 H21        -5.0868   -5.9723    2.1038 H         1 <0>         0.3977
     60 H22        -4.4028   -6.2924   -0.6364 H         1 <0>         0.0809
     61 H23        -3.4638   -7.4400    0.3483 H         1 <0>         0.0803
     62 H24        -4.1199   -9.9935    0.8027 H         1 <0>         0.1325
     63 H25        -3.9782  -11.3526    2.8511 H         1 <0>         0.1241
     64 H26        -5.2843  -10.7207    4.8406 H         1 <0>         0.1222
     65 H27        -6.7314   -8.7294    4.7820 H         1 <0>         0.1229
     66 H28        -6.8666   -7.3656    2.7362 H         1 <0>         0.1188
     67 H29        -6.5139   -7.2584   -2.0810 H         1 <0>         0.0482
     68 H30        -4.7336   -7.2309   -2.0562 H         1 <0>         0.0923
     69 H31        -5.6367   -8.2590   -4.1519 H         1 <0>         0.1024
     70 H32        -4.6581   -9.4066   -3.2051 H         1 <0>         0.0624
     71 H33        -7.6256  -11.1252   -1.9460 H         1 <0>         0.1014
     72 H34        -5.8458  -11.1182   -1.8878 H         1 <0>         0.0615
     73 H35        -6.7505  -10.1375    0.1808 H         1 <0>         0.0893
     74 H36        -7.6984   -8.9655   -0.7672 H         1 <0>         0.0462
     75 H37        -2.7541   -7.0960    5.5698 H         1 <0>         0.4276
@<TRIPOS>BOND
     1    1    2 1
     2    1   41 1
     3    1   42 1
     4    1   43 1
     5    2    7 ar
     6    2    3 ar
     7    3    4 ar
     8    3   44 1
     9    4    5 ar
    10    4   45 1
    11    5    6 ar
    12    5   40 1
    13    6    7 ar
    14    6    9 1
    15    7    8 1
    16    9   10 2
    17    9   11 am
    18   11   16 1
    19   11   12 1
    20   12   13 1
    21   12   46 1
    22   12   47 1
    23   13   14 1
    24   13   15 1
    25   13   22 1
    26   15   21 1
    27   15   16 1
    28   15   17 1
    29   16   48 1
    30   16   49 1
    31   17   18 1
    32   17   50 1
    33   17   51 1
    34   18   19 1
    35   18   52 1
    36   18   53 1
    37   19   20 1
    38   19   54 1
    39   19   75 1
    40   20   21 1
    41   20   55 1
    42   20   56 1
    43   21   57 1
    44   21   58 1
    45   22   23 2
    46   22   24 am
    47   24   25 1
    48   24   59 1
    49   25   26 1
    50   25   60 1
    51   25   61 1
    52   26   27 1
    53   26   28 1
    54   26   34 1
    55   28   33 ar
    56   28   29 ar
    57   29   30 ar
    58   29   62 1
    59   30   31 ar
    60   30   63 1
    61   31   32 ar
    62   31   64 1
    63   32   33 ar
    64   32   65 1
    65   33   66 1
    66   34   39 1
    67   34   35 1
    68   35   36 1
    69   35   67 1
    70   35   68 1
    71   36   37 1
    72   36   69 1
    73   36   70 1
    74   37   38 1
    75   38   39 1
    76   38   71 1
    77   38   72 1
    78   39   73 1
    79   39   74 1
@<TRIPOS>MOLECULE
ZINC39687279
   77    81     0     0     0
SMALL
USER_CHARGES

@<TRIPOS>ATOM
      1 C1          0.4145   -2.8142    1.0771 C.3       1 <0>         0.0638
      2 N1          0.4348   -1.5173    0.3960 N.pl3     1 <0>        -0.4029
      3 C2          0.6745   -1.3210   -0.9234 C.2       1 <0>         0.0297
      4 C3          0.6106    0.0059   -1.1877 C.2       1 <0>        -0.2044
      5 C4          0.3202    0.6682    0.0092 C.2       1 <0>        -0.1498
      6 C5          0.2078   -0.2957    0.9885 C.2       1 <0>        -0.0616
      7 C6         -0.0951   -0.0618    2.4045 C.2       1 <0>         0.6184
      8 O1         -0.0317   -0.9805    3.2001 O.2       1 <0>        -0.5340
      9 N2         -0.4436    1.1705    2.8244 N.am      1 <0>        -0.6200
     10 C7         -0.7149    2.3693    1.9965 C.3       1 <0>         0.0827
     11 C8         -1.9151    3.0563    2.6858 C.3       1 <0>        -0.1107
     12 H1         -1.8081    4.1402    2.6426 H         1 <0>         0.1341
     13 C9         -1.8608    2.5706    4.1440 C.3       1 <0>        -0.0760
     14 C10        -0.6484    1.6313    4.2186 C.3       1 <0>         0.1088
     15 C11        -3.1344    1.8071    4.4944 C.3       1 <0>        -0.1506
     16 C12        -3.0818    1.3839    5.9651 C.3       1 <0>        -0.0085
     17 N3         -2.9516    2.5742    6.8142 N.4       1 <0>        -0.5043
     18 C13        -1.6796    3.2516    6.5354 C.3       1 <0>        -0.0101
     19 C14        -1.6727    3.7536    5.0887 C.3       1 <0>        -0.1326
     20 C15        -3.2068    2.6312    2.0364 C.2       1 <0>         0.5220
     21 O2         -4.0686    3.4528    1.8057 O.2       1 <0>        -0.5028
     22 N4         -3.4044    1.3381    1.7120 N.am      1 <0>        -0.7138
     23 C16        -4.6602    0.9249    1.0807 C.3       1 <0>         0.1346
     24 H2         -5.4809    1.5205    1.4803 H         1 <0>         0.1131
     25 C17        -4.5649    1.1374   -0.4314 C.3       1 <0>        -0.0893
     26 C18        -4.4135    2.6081   -0.7235 C.ar      1 <0>        -0.0682
     27 C19        -5.5347    3.3945   -0.9113 C.ar      1 <0>        -0.1043
     28 C20        -5.3958    4.7435   -1.1791 C.ar      1 <0>        -0.1088
     29 C21        -4.1357    5.3062   -1.2588 C.ar      1 <0>        -0.1147
     30 C22        -3.0145    4.5199   -1.0701 C.ar      1 <0>        -0.1127
     31 C23        -3.1535    3.1718   -0.7980 C.ar      1 <0>        -0.1125
     32 C24        -4.9110   -0.5330    1.3683 C.2       1 <0>         0.5105
     33 O3         -3.9768   -1.2849    1.5493 O.2       1 <0>        -0.5306
     34 N5         -6.1736   -1.0013    1.4243 N.am      1 <0>        -0.6031
     35 C25        -7.3100   -0.1317    1.0911 C.3       1 <0>         0.0992
     36 C26        -8.1606   -0.8208    0.0194 C.3       1 <0>        -0.1376
     37 C27        -8.5585   -2.2153    0.5084 C.3       1 <0>        -0.1224
     38 C28        -7.3000   -3.0549    0.7399 C.3       1 <0>        -0.1372
     39 C29        -6.4393   -2.3928    1.8139 C.3       1 <0>         0.1106
     40 H3         -0.6106   -3.1810    1.1296 H         1 <0>         0.0795
     41 H4          1.0269   -3.5253    0.5228 H         1 <0>         0.0878
     42 H5          0.8120   -2.7012    2.0857 H         1 <0>         0.0994
     43 H6          0.8824   -2.0962   -1.6461 H         1 <0>         0.1728
     44 H7          0.7578    0.4700   -2.1517 H         1 <0>         0.1463
     45 H8          0.2026    1.7337    0.1408 H         1 <0>         0.1492
     46 H9          0.1508    3.0317    1.9917 H         1 <0>         0.0977
     47 H10        -0.9768    2.0774    0.9795 H         1 <0>         0.1103
     48 H11        -0.8634    0.7851    4.8712 H         1 <0>         0.0912
     49 H12         0.2285    2.1731    4.5730 H         1 <0>         0.0889
     50 H13        -4.0000    2.4490    4.3311 H         1 <0>         0.0988
     51 H14        -3.2130    0.9217    3.8635 H         1 <0>         0.1190
     52 H15        -3.9978    0.8523    6.2229 H         1 <0>         0.1370
     53 H16        -2.2251    0.7289    6.1241 H         1 <0>         0.1345
     54 H17        -3.7157    3.2055    6.6256 H         1 <0>         0.4289
     55 H18        -1.5621    4.0969    7.2136 H         1 <0>         0.1404
     56 H19        -0.8562    2.5524    6.6811 H         1 <0>         0.1324
     57 H20        -0.7208    4.2406    4.8771 H         1 <0>         0.1224
     58 H21        -2.4857    4.4656    4.9467 H         1 <0>         0.1016
     59 H22        -2.7151    0.6810    1.8965 H         1 <0>         0.4092
     60 H23        -3.7007    0.5989   -0.8203 H         1 <0>         0.0846
     61 H24        -5.4708    0.7636   -0.9087 H         1 <0>         0.0870
     62 H25        -6.5192    2.9548   -0.8490 H         1 <0>         0.1146
     63 H26        -6.2718    5.3577   -1.3266 H         1 <0>         0.1193
     64 H27        -4.0272    6.3600   -1.4688 H         1 <0>         0.1188
     65 H28        -2.0300    4.9595   -1.1327 H         1 <0>         0.1176
     66 H29        -2.2776    2.5583   -0.6469 H         1 <0>         0.1094
     67 H30        -7.9134    0.0388    1.9827 H         1 <0>         0.0751
     68 H31        -6.9418    0.8204    0.7089 H         1 <0>         0.0867
     69 H32        -9.0580   -0.2311   -0.1676 H         1 <0>         0.0821
     70 H33        -7.5842   -0.9089   -0.9015 H         1 <0>         0.0701
     71 H34        -9.1136   -2.1279    1.4424 H         1 <0>         0.0663
     72 H35        -9.1843   -2.6984   -0.2420 H         1 <0>         0.0716
     73 H36        -7.5849   -4.0552    1.0658 H         1 <0>         0.0801
     74 H37        -6.7317   -3.1220   -0.1878 H         1 <0>         0.0684
     75 H38        -5.4968   -2.9321    1.9085 H         1 <0>         0.0934
     76 H39        -6.9701   -2.4108    2.7657 H         1 <0>         0.0701
     77 H40        -2.9785    2.2982    7.7844 H         1 <0>         0.4336
@<TRIPOS>BOND
     1    1    2 1
     2    1   40 1
     3    1   41 1
     4    1   42 1
     5    2    6 1
     6    2    3 1
     7    3    4 2
     8    3   43 1
     9    4    5 1
    10    4   44 1
    11    5    6 2
    12    5   45 1
    13    6    7 1
    14    7    8 2
    15    7    9 am
    16    9   14 1
    17    9   10 1
    18   10   11 1
    19   10   46 1
    20   10   47 1
    21   11   12 1
    22   11   13 1
    23   11   20 1
    24   13   19 1
    25   13   14 1
    26   13   15 1
    27   14   48 1
    28   14   49 1
    29   15   16 1
    30   15   50 1
    31   15   51 1
    32   16   17 1
    33   16   52 1
    34   16   53 1
    35   17   18 1
    36   17   54 1
    37   17   77 1
    38   18   19 1
    39   18   55 1
    40   18   56 1
    41   19   57 1
    42   19   58 1
    43   20   21 2
    44   20   22 am
    45   22   23 1
    46   22   59 1
    47   23   24 1
    48   23   25 1
    49   23   32 1
    50   25   26 1
    51   25   60 1
    52   25   61 1
    53   26   31 ar
    54   26   27 ar
    55   27   28 ar
    56   27   62 1
    57   28   29 ar
    58   28   63 1
    59   29   30 ar
    60   29   64 1
    61   30   31 ar
    62   30   65 1
    63   31   66 1
    64   32   33 2
    65   32   34 am
    66   34   39 1
    67   34   35 1
    68   35   36 1
    69   35   67 1
    70   35   68 1
    71   36   37 1
    72   36   69 1
    73   36   70 1
    74   37   38 1
    75   37   71 1
    76   37   72 1
    77   38   39 1
    78   38   73 1
    79   38   74 1
    80   39   75 1
    81   39   76 1
@<TRIPOS>MOLECULE
ZINC39695702
   73    77     0     0     0
SMALL
USER_CHARGES

@<TRIPOS>ATOM
      1 C1          3.3098   -1.9575    8.8673 C.3       1 <0>        -0.1186
      2 C2          3.0962   -2.7335    7.5932 C.ar      1 <0>        -0.0554
      3 C3          4.1585   -2.9366    6.7237 C.ar      1 <0>        -0.1215
      4 C4          3.9855   -3.6373    5.5639 C.ar      1 <0>        -0.0607
      5 C5          2.7281   -4.1573    5.2455 C.ar      1 <0>         0.0391
      6 C6          1.6523   -3.9524    6.1258 C.ar      1 <0>         0.0592
      7 C7          1.8482   -3.2418    7.3023 C.ar      1 <0>        -0.1168
      8 N1          0.5632   -4.5733    5.5476 N.pl3     1 <0>        -0.5907
      9 C8          0.9844   -5.1200    4.3753 C.2       1 <0>         0.2639
     10 N2          2.2503   -4.8771    4.1980 N.2       1 <0>        -0.4849
     11 C9          0.1121   -5.8946    3.4213 C.3       1 <0>         0.2285
     12 H1         -0.6212   -6.4706    3.9857 H         1 <0>         0.1103
     13 C10        -0.6119   -4.9221    2.4881 C.3       1 <0>        -0.1658
     14 N3          0.9430   -6.8046    2.6290 N.am      1 <0>        -0.7121
     15 C11         0.4033   -7.9192    2.0972 C.2       1 <0>         0.5251
     16 O1         -0.7702   -8.1689    2.2745 O.2       1 <0>        -0.5211
     17 C12         1.2580   -8.8553    1.2821 C.3       1 <0>        -0.1119
     18 H2          2.0763   -8.3092    0.8128 H         1 <0>         0.1149
     19 C13         0.4033   -9.5690    0.2109 C.3       1 <0>         0.1169
     20 N4          0.9517  -10.9443    0.1497 N.am      1 <0>        -0.6176
     21 C14         1.2442  -11.2877    1.5620 C.3       1 <0>         0.0928
     22 C15         1.8073   -9.9866    2.1674 C.3       1 <0>        -0.0717
     23 C16         1.3190   -9.8187    3.6030 C.3       1 <0>        -0.1488
     24 C17         1.9252  -10.9212    4.4758 C.3       1 <0>        -0.0077
     25 N5          3.3899  -10.8399    4.4232 N.4       1 <0>        -0.5049
     26 C18         3.8567  -11.0950    3.0550 C.3       1 <0>        -0.0115
     27 C19         3.3322   -9.9997    2.1221 C.3       1 <0>        -0.1363
     28 C20         1.1421  -11.7099   -0.9430 C.2       1 <0>         0.5864
     29 O2          0.9731  -11.2400   -2.0513 O.2       1 <0>        -0.5051
     30 C21         1.5564  -13.1215   -0.7938 C.ar      1 <0>        -0.0555
     31 C22         1.3402  -13.7903    0.4113 C.ar      1 <0>        -0.1819
     32 C23         1.7295  -15.1127    0.5467 C.ar      1 <0>         0.1618
     33 C24         2.3340  -15.7720   -0.5137 C.ar      1 <0>        -0.2741
     34 C25         2.5508  -15.1106   -1.7138 C.ar      1 <0>         0.1718
     35 C26         2.1595  -13.7900   -1.8596 C.ar      1 <0>        -0.1273
     36 O3          3.1434  -15.7611   -2.7496 O.3       1 <0>        -0.3056
     37 C27         3.5165  -17.1232   -2.5320 C.3       1 <0>         0.0232
     38 O4          1.5193  -15.7652    1.7203 O.3       1 <0>        -0.3150
     39 C28         1.9454  -17.1274    1.7905 C.3       1 <0>         0.0230
     40 H3          3.6016   -2.6411    9.6645 H         1 <0>         0.0756
     41 H4          4.0972   -1.2192    8.7153 H         1 <0>         0.0738
     42 H5          2.3851   -1.4508    9.1435 H         1 <0>         0.0699
     43 H6          5.1318   -2.5363    6.9662 H         1 <0>         0.1336
     44 H7          4.8189   -3.7888    4.8939 H         1 <0>         0.1309
     45 H8          1.0258   -3.0844    7.9844 H         1 <0>         0.1263
     46 H9          0.1214   -4.3460    1.9238 H         1 <0>         0.0713
     47 H10        -1.2429   -5.4823    1.7981 H         1 <0>         0.0804
     48 H11        -1.2301   -4.2450    3.0777 H         1 <0>         0.0726
     49 H12         1.8815   -6.6049    2.4871 H         1 <0>         0.4147
     50 H13        -0.6439   -9.5905    0.5125 H         1 <0>         0.1010
     51 H14         0.5117   -9.0734   -0.7539 H         1 <0>         0.1001
     52 H15         0.3312  -11.5846    2.0782 H         1 <0>         0.0912
     53 H16         1.9875  -12.0832    1.6140 H         1 <0>         0.0980
     54 H17         1.6282   -8.8442    3.9809 H         1 <0>         0.0972
     55 H18         0.2317   -9.8911    3.6283 H         1 <0>         0.1275
     56 H19         1.5913  -10.7940    5.5055 H         1 <0>         0.1383
     57 H20         1.6022  -11.8949    4.1073 H         1 <0>         0.1343
     58 H21         3.6849   -9.9191    4.7116 H         1 <0>         0.4288
     59 H22         4.9465  -11.0958    3.0374 H         1 <0>         0.1403
     60 H23         3.4876  -12.0644    2.7203 H         1 <0>         0.1329
     61 H24         3.6643  -10.1997    1.1034 H         1 <0>         0.1201
     62 H25         3.7142   -9.0318    2.4465 H         1 <0>         0.0999
     63 H26         0.8703  -13.2776    1.2376 H         1 <0>         0.1424
     64 H27         2.6369  -16.8028   -0.4046 H         1 <0>         0.1425
     65 H28         2.3246  -13.2772   -2.7956 H         1 <0>         0.1489
     66 H29         3.9776  -17.5224   -3.4354 H         1 <0>         0.1100
     67 H30         4.2267  -17.1781   -1.7070 H         1 <0>         0.0579
     68 H31         2.6298  -17.7082   -2.2877 H         1 <0>         0.0596
     69 H32         1.4224  -17.7112    1.0331 H         1 <0>         0.0609
     70 H33         3.0196  -17.1816    1.6136 H         1 <0>         0.0583
     71 H34         1.7193  -17.5283    2.7786 H         1 <0>         0.1073
     72 H35         3.7862  -11.5276    5.0460 H         1 <0>         0.4335
     73 H36        -0.3356   -4.6126    5.9102 H         1 <0>         0.4260
@<TRIPOS>BOND
     1    1    2 1
     2    1   40 1
     3    1   41 1
     4    1   42 1
     5    2    7 ar
     6    2    3 ar
     7    3    4 ar
     8    3   43 1
     9    4    5 ar
    10    4   44 1
    11    5   10 1
    12    5    6 ar
    13    6    7 ar
    14    6    8 1
    15    7   45 1
    16    8    9 1
    17    8   73 1
    18    9   10 2
    19    9   11 1
    20   11   12 1
    21   11   13 1
    22   11   14 1
    23   13   46 1
    24   13   47 1
    25   13   48 1
    26   14   15 am
    27   14   49 1
    28   15   16 2
    29   15   17 1
    30   17   18 1
    31   17   22 1
    32   17   19 1
    33   19   20 1
    34   19   50 1
    35   19   51 1
    36   20   21 1
    37   20   28 am
    38   21   22 1
    39   21   52 1
    40   21   53 1
    41   22   27 1
    42   22   23 1
    43   23   24 1
    44   23   54 1
    45   23   55 1
    46   24   25 1
    47   24   56 1
    48   24   57 1
    49   25   26 1
    50   25   58 1
    51   25   72 1
    52   26   27 1
    53   26   59 1
    54   26   60 1
    55   27   61 1
    56   27   62 1
    57   28   29 2
    58   28   30 1
    59   30   35 ar
    60   30   31 ar
    61   31   32 ar
    62   31   63 1
    63   32   33 ar
    64   32   38 1
    65   33   34 ar
    66   33   64 1
    67   34   35 ar
    68   34   36 1
    69   35   65 1
    70   36   37 1
    71   37   66 1
    72   37   67 1
    73   37   68 1
    74   38   39 1
    75   39   69 1
    76   39   70 1
    77   39   71 1
@<TRIPOS>MOLECULE
ZINC63708497
   66    70     0     0     0
SMALL
USER_CHARGES

@<TRIPOS>ATOM
      1 C1         -0.0163    1.3482    0.0095 C.ar      1 <0>        -0.1528
      2 C2          1.1658    2.1014    0.0022 C.ar      1 <0>         0.0562
      3 C3          2.3912    1.5352   -0.0125 C.ar      1 <0>        -0.2115
      4 C4          2.5288    0.1198   -0.0218 C.ar      1 <0>         0.3278
      5 N1          3.5868   -0.6543   -0.0369 N.pl3     1 <0>        -0.5874
      6 C5          3.1432   -2.0528   -0.0408 C.3       1 <0>         0.0601
      7 C6          1.6315   -2.0084   -0.0255 C.2       1 <0>         0.0710
      8 C7          1.2951   -0.6984   -0.0144 C.ar      1 <0>        -0.1705
      9 C8          0.0021   -0.0041    0.0020 C.ar      1 <0>        -0.0100
     10 C9          0.6905   -3.1856   -0.0239 C.3       1 <0>        -0.0776
     11 C10         0.4565   -3.6534   -1.4617 C.3       1 <0>        -0.1288
     12 C11        -0.4845   -4.8305   -1.4601 C.2       1 <0>         0.5179
     13 O1         -0.9246   -5.2536   -0.4122 O.2       1 <0>        -0.5099
     14 N2         -0.8369   -5.4131   -2.6232 N.am      1 <0>        -0.5096
     15 N3         -1.7118   -6.5074   -2.6217 N.am      1 <0>        -0.4195
     16 C12        -1.1815   -7.8516   -2.8506 C.3       1 <0>         0.4019
     17 H1         -0.1405   -7.8884   -2.5293 H         1 <0>         0.1479
     18 N4         -1.9582   -8.8410   -2.0950 N.pl3     1 <0>        -0.7287
     19 C13        -3.3447   -8.7373   -2.0842 C.ar      1 <0>         0.2189
     20 C14        -4.1575   -9.8487   -1.9375 C.ar      1 <0>        -0.1736
     21 C15        -5.5305   -9.6947   -1.9217 C.ar      1 <0>        -0.0422
     22 C16        -6.0998   -8.4376   -2.0514 C.ar      1 <0>        -0.1604
     23 C17        -5.3045   -7.3209   -2.2033 C.ar      1 <0>        -0.0188
     24 C18        -3.9187   -7.4621   -2.2250 C.ar      1 <0>        -0.2033
     25 C19        -3.0264   -6.3038   -2.4039 C.2       1 <0>         0.5786
     26 O2         -3.4731   -5.1737   -2.3596 O.2       1 <0>        -0.5081
     27 S1         -1.2781   -8.2421   -4.6194 S.3       1 <0>        -0.1601
     28 C20        -3.0487   -8.1305   -4.9974 C.3       1 <0>        -0.1263
     29 C21        -3.2713   -8.4367   -6.4561 C.2       1 <0>         0.5312
     30 O3         -2.3282   -8.7038   -7.1704 O.2       1 <0>        -0.5184
     31 N5         -4.5183   -8.4135   -6.9669 N.am      1 <0>        -0.7169
     32 C22        -4.7346   -8.7111   -8.3850 C.3       1 <0>         0.1234
     33 C23        -6.2280   -8.6170   -8.7038 C.3       1 <0>         0.0670
     34 H2         -6.6001   -7.6176   -8.4784 H         1 <0>         0.0795
     35 C24        -6.4830   -8.9627  -10.1925 C.3       1 <0>        -0.1487
     36 C25        -7.9612   -9.4356  -10.1364 C.3       1 <0>        -0.1562
     37 C26        -8.0344  -10.1187   -8.7539 C.3       1 <0>         0.0502
     38 O4         -6.9603   -9.6018   -7.9572 O.3       1 <0>        -0.3786
     39 H3         -0.9665    1.8612    0.0259 H         1 <0>         0.1579
     40 H4          1.0933    3.1789    0.0083 H         1 <0>         0.1608
     41 H5          3.2717    2.1606   -0.0175 H         1 <0>         0.1602
     42 H6          3.4952   -2.5561   -0.9413 H         1 <0>         0.1737
     43 H7          3.5129   -2.5667    0.8465 H         1 <0>         0.1746
     44 H8         -0.9210   -0.5647    0.0081 H         1 <0>         0.1614
     45 H9          1.1268   -3.9987    0.5563 H         1 <0>         0.1209
     46 H10        -0.2596   -2.8905    0.4214 H         1 <0>         0.1187
     47 H11         0.0203   -2.8403   -2.0419 H         1 <0>         0.1130
     48 H12         1.4067   -3.9484   -1.9070 H         1 <0>         0.1122
     49 H13        -0.4849   -5.0747   -3.4614 H         1 <0>         0.4242
     50 H14        -1.5126   -9.5546   -1.6122 H         1 <0>         0.4238
     51 H15        -3.7204  -10.8311   -1.8362 H         1 <0>         0.1383
     52 H16        -6.1653  -10.5610   -1.8076 H         1 <0>         0.1371
     53 H17        -7.1745   -8.3317   -2.0338 H         1 <0>         0.1364
     54 H18        -5.7531   -6.3437   -2.3048 H         1 <0>         0.1395
     55 H19        -3.5964   -8.8491   -4.3877 H         1 <0>         0.1187
     56 H20        -3.4041   -7.1235   -4.7792 H         1 <0>         0.1061
     57 H21        -5.2725   -8.1999   -6.3957 H         1 <0>         0.4065
     58 H22        -4.1869   -7.9925   -8.9947 H         1 <0>         0.0840
     59 H23        -4.3792   -9.7182   -8.6032 H         1 <0>         0.0787
     60 H24        -6.3763   -8.0809  -10.8244 H         1 <0>         0.0888
     61 H25        -5.8261   -9.7655  -10.5275 H         1 <0>         0.0849
     62 H26        -8.6424   -8.5861  -10.1859 H         1 <0>         0.0793
     63 H27        -8.1708  -10.1491  -10.9333 H         1 <0>         0.0868
     64 H28        -8.9884   -9.8905   -8.2787 H         1 <0>         0.0716
     65 H29        -7.9255  -11.1973   -8.8682 H         1 <0>         0.0725
     66 H30         4.5087   -0.3528   -0.0446 H         1 <0>         0.4556
@<TRIPOS>BOND
     1    1    9 ar
     2    1    2 ar
     3    1   39 1
     4    2    3 ar
     5    2   40 1
     6    3    4 ar
     7    3   41 1
     8    4    8 ar
     9    4    5 2
    10    5    6 1
    11    5   66 1
    12    6    7 1
    13    6   42 1
    14    6   43 1
    15    7    8 2
    16    7   10 1
    17    8    9 ar
    18    9   44 1
    19   10   11 1
    20   10   45 1
    21   10   46 1
    22   11   12 1
    23   11   47 1
    24   11   48 1
    25   12   13 2
    26   12   14 am
    27   14   15 1
    28   14   49 1
    29   15   25 am
    30   15   16 1
    31   16   17 1
    32   16   18 1
    33   16   27 1
    34   18   19 1
    35   18   50 1
    36   19   24 ar
    37   19   20 ar
    38   20   21 ar
    39   20   51 1
    40   21   22 ar
    41   21   52 1
    42   22   23 ar
    43   22   53 1
    44   23   24 ar
    45   23   54 1
    46   24   25 1
    47   25   26 2
    48   27   28 1
    49   28   29 1
    50   28   55 1
    51   28   56 1
    52   29   30 2
    53   29   31 am
    54   31   32 1
    55   31   57 1
    56   32   33 1
    57   32   58 1
    58   32   59 1
    59   33   34 1
    60   33   38 1
    61   33   35 1
    62   35   36 1
    63   35   60 1
    64   35   61 1
    65   36   37 1
    66   36   62 1
    67   36   63 1
    68   37   38 1
    69   37   64 1
    70   37   65 1
@<TRIPOS>MOLECULE
ZINC09885225
   48    49     0     0     0
SMALL
USER_CHARGES
3-methyl-2-(2-methyl-5-pyrrolidin-1-ylsulfonyl-benzoyl)amino-butanoic acid
@<TRIPOS>ATOM
      1 C1         -3.1335    3.2372    4.8543 C.3       1 <0>        -0.1303
      2 C2         -2.3553    2.7434    3.6619 C.ar      1 <0>         0.0307
      3 C3         -1.5905    3.6226    2.9231 C.ar      1 <0>        -0.1512
      4 C4         -0.8707    3.1698    1.8320 C.ar      1 <0>        -0.0011
      5 C5         -0.9213    1.8359    1.4672 C.ar      1 <0>        -0.6949
      6 C6         -1.6820    0.9465    2.1973 C.ar      1 <0>         0.0175
      7 C7         -2.4063    1.3958    3.3029 C.ar      1 <0>        -0.1417
      8 C8         -3.2241    0.4482    4.0897 C.2       1 <0>         0.5574
      9 O1         -3.7619    0.8161    5.1158 O.2       1 <0>        -0.5318
     10 N1         -3.3733   -0.8236    3.6692 N.am      1 <0>        -0.6935
     11 C9         -4.1837   -1.7626    4.4488 C.3       1 <0>         0.0998
     12 H1         -5.0238   -1.2321    4.8971 H         1 <0>         0.0890
     13 C10        -4.7096   -2.8672    3.5301 C.3       1 <0>        -0.0806
     14 C11        -3.5349   -3.6908    2.9986 C.3       1 <0>        -0.1467
     15 C12        -5.6560   -3.7768    4.3162 C.3       1 <0>        -0.1551
     16 C13        -3.3377   -2.3738    5.5359 C.2       1 <0>         0.4652
     17 O2         -2.1770   -2.0575    5.6480 O.co2     1 <0>        -0.6281
     18 S1         -0.0064    1.2709    0.0714 S.o2      1 <0>         2.7095
     19 O3          0.2168   -0.1187    0.2675 O.2       1 <0>        -0.9466
     20 O4          1.0572    2.1941   -0.1178 O.2       1 <0>        -0.9539
     21 N2         -0.9943    1.4097   -1.2504 N.pl3     1 <0>        -1.0127
     22 C14        -1.9039    0.3698   -1.7533 C.3       1 <0>         0.1152
     23 C15        -2.5971    0.9361   -3.0103 C.3       1 <0>        -0.1285
     24 C16        -1.6164    2.0447   -3.4757 C.3       1 <0>        -0.1292
     25 C17        -1.1027    2.5941   -2.1215 C.3       1 <0>         0.1130
     26 H2         -2.5596    3.0561    5.7631 H         1 <0>         0.0858
     27 H3         -3.3200    4.3059    4.7492 H         1 <0>         0.0599
     28 H4         -4.0839    2.7066    4.9129 H         1 <0>         0.1039
     29 H5         -1.5499    4.6657    3.2001 H         1 <0>         0.1382
     30 H6         -0.2698    3.8611    1.2599 H         1 <0>         0.1413
     31 H7         -1.7175   -0.0951    1.9140 H         1 <0>         0.1406
     32 H8         -2.9441   -1.1172    2.8503 H         1 <0>         0.3903
     33 H9         -5.2470   -2.4193    2.6942 H         1 <0>         0.0577
     34 H10        -3.9096   -4.4778    2.3440 H         1 <0>         0.0507
     35 H11        -2.8607   -3.0428    2.4385 H         1 <0>         0.0439
     36 H12        -2.9975   -4.1387    3.8344 H         1 <0>         0.0681
     37 H13        -6.4929   -3.1900    4.6948 H         1 <0>         0.0437
     38 H14        -6.0307   -4.5637    3.6617 H         1 <0>         0.0382
     39 H15        -5.1186   -4.2247    5.1521 H         1 <0>         0.1066
     40 H16        -1.3375   -0.5249   -2.0114 H         1 <0>         0.0760
     41 H17        -2.6507    0.1326   -0.9956 H         1 <0>         0.0687
     42 H18        -3.5693    1.3612   -2.7605 H         1 <0>         0.0771
     43 H19        -2.6971    0.1644   -3.7735 H         1 <0>         0.0822
     44 H20        -2.1395    2.8182   -4.0380 H         1 <0>         0.0831
     45 H21        -0.7996    1.6230   -4.0614 H         1 <0>         0.0771
     46 H22        -1.8155    3.3065   -1.7062 H         1 <0>         0.0683
     47 H23        -0.1267    3.0626   -2.2479 H         1 <0>         0.0842
     48 O5         -3.8737   -3.2695    6.3798 O.co2     1 <0>        -0.7567
@<TRIPOS>BOND
     1    1    2 1
     2    1   26 1
     3    1   27 1
     4    1   28 1
     5    2    7 ar
     6    2    3 ar
     7    3    4 ar
     8    3   29 1
     9    4    5 ar
    10    4   30 1
    11    5    6 ar
    12    5   18 1
    13    6    7 ar
    14    6   31 1
    15    7    8 1
    16    8    9 2
    17    8   10 am
    18   10   11 1
    19   10   32 1
    20   11   12 1
    21   11   13 1
    22   11   16 1
    23   13   14 1
    24   13   15 1
    25   13   33 1
    26   14   34 1
    27   14   35 1
    28   14   36 1
    29   15   37 1
    30   15   38 1
    31   15   39 1
    32   16   17 2
    33   16   48 1
    34   18   19 2
    35   18   20 2
    36   18   21 1
    37   21   25 1
    38   21   22 1
    39   22   23 1
    40   22   40 1
    41   22   41 1
    42   23   24 1
    43   23   42 1
    44   23   43 1
    45   24   25 1
    46   24   44 1
    47   24   45 1
    48   25   46 1
    49   25   47 1
@<TRIPOS>MOLECULE
ZINC22729973
   42    44     0     0     0
SMALL
USER_CHARGES
(E)-3-anilino-2-(3-hydroxypyridin-1-ium-1-yl)-1-(4-nitrophenyl)-3-sulfanyl-prop-2-en-1-one
@<TRIPOS>ATOM
      1 C1         -0.0312    0.2180    0.9902 C.ar      1 <0>        -0.1348
      2 C2          1.0787    0.3676    1.8015 C.ar      1 <0>        -0.1142
      3 C3          2.3207   -0.0417    1.3576 C.ar      1 <0>        -0.0811
      4 C4          2.4545   -0.6038    0.0944 C.ar      1 <0>         0.1526
      5 C5          1.3376   -0.7527   -0.7180 C.ar      1 <0>        -0.1440
      6 C6          0.0984   -0.3416   -0.2678 C.ar      1 <0>        -0.1179
      7 N1          3.7102   -1.0192   -0.3581 N.pl3     1 <0>        -0.6645
      8 C7          4.8244   -0.2807   -0.0595 C.2       1 <0>         0.4441
      9 C8          6.0883   -0.7573   -0.4013 C.2       1 <0>        -0.3512
     10 C9          7.2237    0.0546   -0.2077 C.2       1 <0>         0.5077
     11 O1          7.3969    1.0376   -0.9082 O.2       1 <0>        -0.4256
     12 C10         8.2058   -0.2856    0.8458 C.ar      1 <0>        -0.0868
     13 C11         7.9767   -1.3703    1.6933 C.ar      1 <0>        -0.0673
     14 C12         8.8989   -1.6857    2.6697 C.ar      1 <0>        -0.0636
     15 C13        10.0432   -0.9220    2.8173 C.ar      1 <0>        -0.0309
     16 C14        10.2736    0.1579    1.9836 C.ar      1 <0>        -0.0675
     17 C15         9.3620    0.4803    0.9996 C.ar      1 <0>        -0.0703
     18 N2         11.0253   -1.2621    3.8713 N.pl3     1 <0>         0.0294
     19 O2         12.0337   -0.5918    4.0032 O.2       1 <0>        -0.1636
     20 O3         10.8250   -2.2122    4.6066 O.3       1 <0>        -0.1592
     21 N3          6.2278   -2.0212   -0.9280 N.ar      1 <0>        -0.1524
     22 C16         6.6596   -2.1587   -2.1749 C.ar      1 <0>        -0.0320
     23 C17         6.8114   -3.4098   -2.7365 C.ar      1 <0>        -0.0849
     24 C18         6.5075   -4.5337   -1.9827 C.ar      1 <0>        -0.1740
     25 C19         6.0571   -4.3569   -0.6773 C.ar      1 <0>         0.2620
     26 C20         5.9326   -3.0720   -0.1751 C.ar      1 <0>        -0.0664
     27 O4          5.7482   -5.4312    0.0958 O.3       1 <0>        -0.6555
     28 S1          4.6596    1.2721    0.7568 S.3       1 <0>        -0.7558
     29 H1         -1.0006    0.5430    1.3380 H         1 <0>         0.1153
     30 H2          0.9740    0.8051    2.7834 H         1 <0>         0.1190
     31 H3          3.1871    0.0757    1.9916 H         1 <0>         0.1471
     32 H4          1.4383   -1.1890   -1.7008 H         1 <0>         0.1158
     33 H5         -0.7703   -0.4571   -0.8989 H         1 <0>         0.1179
     34 H6          3.8034   -1.9391   -0.9539 H         1 <0>         0.4179
     35 H7          7.0814   -1.9640    1.5825 H         1 <0>         0.1514
     36 H8          8.7250   -2.5276    3.3234 H         1 <0>         0.1571
     37 H9         11.1689    0.7499    2.1037 H         1 <0>         0.1558
     38 H10         9.5430    1.3235    0.3495 H         1 <0>         0.1559
     39 H11         6.8949   -1.2804   -2.7577 H         1 <0>         0.1670
     40 H12         7.1634   -3.5129   -3.7523 H         1 <0>         0.1464
     41 H13         6.6181   -5.5241   -2.3991 H         1 <0>         0.1359
     42 H14         5.5881   -2.9245    0.8378 H         1 <0>         0.1653
@<TRIPOS>BOND
     1    1    6 ar
     2    1    2 ar
     3    1   29 1
     4    2    3 ar
     5    2   30 1
     6    3    4 ar
     7    3   31 1
     8    4    5 ar
     9    4    7 1
    10    5    6 ar
    11    5   32 1
    12    6   33 1
    13    7    8 1
    14    7   34 1
    15    8    9 2
    16    8   28 1
    17    9   10 1
    18    9   21 1
    19   10   11 2
    20   10   12 1
    21   12   17 ar
    22   12   13 ar
    23   13   14 ar
    24   13   35 1
    25   14   15 ar
    26   14   36 1
    27   15   16 ar
    28   15   18 1
    29   16   17 ar
    30   16   37 1
    31   17   38 1
    32   18   19 2
    33   18   20 1
    34   21   26 ar
    35   21   22 ar
    36   22   23 ar
    37   22   39 1
    38   23   24 ar
    39   23   40 1
    40   24   25 ar
    41   24   41 1
    42   25   26 ar
    43   25   27 1
    44   26   42 1
@<TRIPOS>MOLECULE
ZINC43746465
   56    58     0     0     0
SMALL
USER_CHARGES

@<TRIPOS>ATOM
      1 C1         -0.2681   -0.8015    0.5459 C.3       1 <0>        -0.1367
      2 C2         -0.2497   -2.1123   -0.2430 C.3       1 <0>         0.0659
      3 H1         -1.2702   -2.3961   -0.5000 H         1 <0>         0.0834
      4 C3          0.3766   -3.1954    0.5970 C.2       1 <0>         0.4952
      5 O1         -0.2143   -3.6298    1.5711 O.co2     1 <0>        -0.6855
      6 O2          1.4741   -3.6374    0.3026 O.co2     1 <0>        -0.6904
      7 N1          0.5309   -1.9330   -1.4697 N.am      1 <0>        -0.6864
      8 C4         -0.0548   -1.4273   -2.5732 C.2       1 <0>         0.5070
      9 O3         -1.2380   -1.1614   -2.5641 O.2       1 <0>        -0.5551
     10 C5          0.7607   -1.1921   -3.8185 C.3       1 <0>         0.1276
     11 H2          1.3153   -2.0973   -4.0660 H         1 <0>         0.1135
     12 C6          1.7416   -0.0432   -3.5764 C.3       1 <0>        -0.0961
     13 C7          0.9700    1.2012   -3.1324 C.3       1 <0>        -0.1504
     14 C8          2.7361   -0.4431   -2.4847 C.3       1 <0>        -0.1692
     15 N2         -0.1312   -0.8471   -4.9284 N.am      1 <0>        -0.7011
     16 C9          0.2355   -1.1178   -6.1967 C.2       1 <0>         0.5125
     17 O4          1.2611   -1.7275   -6.4145 O.2       1 <0>        -0.5249
     18 C10        -0.6287   -0.6629   -7.3444 C.3       1 <0>         0.1494
     19 H3         -1.6663   -0.6406   -7.0111 H         1 <0>         0.1215
     20 C11        -0.2063    0.7704   -7.7448 C.3       1 <0>         0.0002
     21 S1          0.4905    0.4931   -9.4315 S.3       1 <0>        -0.2516
     22 C12         0.6694   -1.3366   -9.2989 C.3       1 <0>         0.1946
     23 H4          1.6189   -1.6468   -8.8625 H         1 <0>         0.1452
     24 N3         -0.5075   -1.6312   -8.4350 N.am      1 <0>        -0.6120
     25 C13        -1.0961   -2.7180   -8.9795 C.2       1 <0>         0.5972
     26 O5         -1.8329   -3.4844   -8.3903 O.2       1 <0>        -0.4925
     27 C14        -0.7091   -2.8330  -10.3993 C.ar      1 <0>        -0.1405
     28 C15         0.3904   -1.9836  -10.6252 C.ar      1 <0>        -0.0633
     29 C16         0.9645   -1.8848  -11.8711 C.ar      1 <0>        -0.0863
     30 C17         0.4778   -2.6452  -12.9212 C.ar      1 <0>        -0.0855
     31 C18        -0.5848   -3.5084  -12.7211 C.ar      1 <0>        -0.1202
     32 C19        -1.1956   -3.6079  -11.4515 C.ar      1 <0>        -0.0412
     33 C20        -1.4170    1.7043   -7.7983 C.3       1 <0>        -0.1324
     34 C21         0.8611    1.3137   -6.7929 C.3       1 <0>        -0.1531
     35 H5          0.7524   -0.5177    0.8029 H         1 <0>         0.0492
     36 H6         -0.7211   -0.0181   -0.0617 H         1 <0>         0.0459
     37 H7         -0.8489   -0.9350    1.4586 H         1 <0>         0.0665
     38 H8          1.4692   -2.1782   -1.4877 H         1 <0>         0.4097
     39 H9          2.2816    0.1738   -4.4981 H         1 <0>         0.0837
     40 H10         0.5265    1.0233   -2.1527 H         1 <0>         0.0611
     41 H11         1.6516    2.0498   -3.0741 H         1 <0>         0.0593
     42 H12         0.1821    1.4169   -3.8541 H         1 <0>         0.0557
     43 H13         3.2918   -1.3246   -2.8046 H         1 <0>         0.0636
     44 H14         3.4297    0.3786   -2.3063 H         1 <0>         0.0646
     45 H15         2.1954   -0.6683   -1.5654 H         1 <0>         0.0761
     46 H16        -0.9856   -0.4239   -4.7504 H         1 <0>         0.4105
     47 H17         1.7954   -1.2135  -12.0306 H         1 <0>         0.1340
     48 H18         0.9287   -2.5639  -13.8992 H         1 <0>         0.1370
     49 H19        -0.9564   -4.1034  -13.5423 H         1 <0>         0.1372
     50 H20        -2.0169   -4.2894  -11.2863 H         1 <0>         0.1387
     51 H21        -1.8912    1.7410   -6.8175 H         1 <0>         0.0789
     52 H22        -1.0916    2.7051   -8.0822 H         1 <0>         0.0772
     53 H23        -2.1308    1.3322   -8.5333 H         1 <0>         0.0734
     54 H24         1.7632    0.7073   -6.8743 H         1 <0>         0.0764
     55 H25         1.0921    2.3457   -7.0569 H         1 <0>         0.0796
     56 H26         0.4886    1.2752   -5.7692 H         1 <0>         0.0830
@<TRIPOS>BOND
     1    1    2 1
     2    1   35 1
     3    1   36 1
     4    1   37 1
     5    2    3 1
     6    2    4 1
     7    2    7 1
     8    4    5 2
     9    4    6 1
    10    7    8 am
    11    7   38 1
    12    8    9 2
    13    8   10 1
    14   10   11 1
    15   10   12 1
    16   10   15 1
    17   12   13 1
    18   12   14 1
    19   12   39 1
    20   13   40 1
    21   13   41 1
    22   13   42 1
    23   14   43 1
    24   14   44 1
    25   14   45 1
    26   15   16 am
    27   15   46 1
    28   16   17 2
    29   16   18 1
    30   18   19 1
    31   18   24 1
    32   18   20 1
    33   20   21 1
    34   20   33 1
    35   20   34 1
    36   21   22 1
    37   22   23 1
    38   22   28 1
    39   22   24 1
    40   24   25 am
    41   25   26 2
    42   25   27 1
    43   27   32 ar
    44   27   28 ar
    45   28   29 ar
    46   29   30 ar
    47   29   47 1
    48   30   31 ar
    49   30   48 1
    50   31   32 ar
    51   31   49 1
    52   32   50 1
    53   33   51 1
    54   33   52 1
    55   33   53 1
    56   34   54 1
    57   34   55 1
    58   34   56 1
@<TRIPOS>MOLECULE
ZINC55329657
   33    34     0     0     0
SMALL
USER_CHARGES

@<TRIPOS>ATOM
      1 C1          0.0471    1.2724    1.5928 C.3       1 <0>         0.0886
      2 N1          0.0391   -0.1764    1.3752 N.am      1 <0>        -0.7326
      3 C2         -0.9336   -0.7409    0.6325 C.2       1 <0>         0.5047
      4 O1         -1.7458   -0.0419    0.0645 O.2       1 <0>        -0.5187
      5 C3         -1.0119   -2.2407    0.5078 C.3       1 <0>         0.1313
      6 H1         -0.6335   -2.7084    1.4168 H         1 <0>         0.0993
      7 C4         -0.1846   -2.7102   -0.7075 C.3       1 <0>        -0.1124
      8 C5         -1.0511   -3.8547   -1.2964 C.3       1 <0>        -0.1292
      9 C6         -2.4836   -3.3262   -1.0352 C.3       1 <0>         0.1148
     10 N2         -2.4046   -2.6512    0.2767 N.pl3     1 <0>        -0.9887
     11 S1         -3.6702   -2.3981    1.3143 S.o2      1 <0>         2.7293
     12 O2         -3.3838   -1.1979    2.0191 O.2       1 <0>        -0.9346
     13 O3         -4.8588   -2.5704    0.5547 O.2       1 <0>        -0.9390
     14 C7         -3.6384   -3.6993    2.5019 C.2       1 <0>        -0.7212
     15 C8         -3.4056   -3.5645    3.8766 C.2       1 <0>        -0.1098
     16 C9         -3.4735   -4.8330    4.4131 C.2       1 <0>        -0.0089
     17 O4         -3.7356   -5.6940    3.4061 O.3       1 <0>        -0.1156
     18 C10        -3.8404   -5.0159    2.2569 C.2       1 <0>         0.0649
     19 Br1        -4.2074   -5.7742    0.5640 Br        1 <0>         0.0612
     20 C11        -3.2992   -5.1727    5.7780 C.2       1 <0>         0.5502
     21 O5         -3.0642   -4.2971    6.6020 O.co2     1 <0>        -0.6490
     22 O6         -3.3836   -6.3420    6.1338 O.co2     1 <0>        -0.6615
     23 H2          0.8510    1.5319    2.2815 H         1 <0>         0.0744
     24 H3          0.2045    1.7817    0.6421 H         1 <0>         0.0556
     25 H4         -0.9084    1.5814    2.0166 H         1 <0>         0.0653
     26 H5          0.7339   -0.7293    1.7657 H         1 <0>         0.4019
     27 H6         -0.0691   -1.9028   -1.4305 H         1 <0>         0.0829
     28 H7          0.7876   -3.0869   -0.3898 H         1 <0>         0.0915
     29 H8         -0.8673   -3.9740   -2.3641 H         1 <0>         0.0888
     30 H9         -0.8767   -4.7900   -0.7646 H         1 <0>         0.0828
     31 H10        -2.7739   -2.6176   -1.8109 H         1 <0>         0.0777
     32 H11        -3.1914   -4.1541   -0.9922 H         1 <0>         0.0815
     33 H12        -3.2111   -2.6467    4.4116 H         1 <0>         0.1741
@<TRIPOS>BOND
     1    1    2 1
     2    1   23 1
     3    1   24 1
     4    1   25 1
     5    2    3 am
     6    2   26 1
     7    3    4 2
     8    3    5 1
     9    5    6 1
    10    5   10 1
    11    5    7 1
    12    7    8 1
    13    7   27 1
    14    7   28 1
    15    8    9 1
    16    8   29 1
    17    8   30 1
    18    9   10 1
    19    9   31 1
    20    9   32 1
    21   10   11 1
    22   11   12 2
    23   11   13 2
    24   11   14 1
    25   14   18 2
    26   14   15 1
    27   15   16 2
    28   15   33 1
    29   16   17 1
    30   16   20 1
    31   17   18 1
    32   18   19 1
    33   20   21 2
    34   20   22 1
@<TRIPOS>MOLECULE
ZINC65035152
   49    52     0     0     0
SMALL
USER_CHARGES

@<TRIPOS>ATOM
      1 C1          2.2503    0.3339    0.9638 C.3       1 <0>        -0.0907
      2 C2          1.2047   -0.6289    0.4629 C.ar      1 <0>        -0.1251
      3 C3          1.4081   -1.3183   -0.7163 C.ar      1 <0>        -0.1157
      4 C4          0.4492   -2.2020   -1.1767 C.ar      1 <0>        -0.1794
      5 C5         -0.7159   -2.3989   -0.4583 C.ar      1 <0>        -0.1117
      6 C6         -0.9256   -1.7127    0.7218 C.ar      1 <0>        -0.1575
      7 C7          0.0379   -0.8282    1.1898 C.ar      1 <0>         0.2437
      8 N1         -0.1687   -0.1366    2.3855 N.2       1 <0>        -1.1188
      9 S1         -0.1856   -0.9567    3.8241 S.o2      1 <0>         2.6067
     10 O1         -1.3203   -1.8114    3.7910 O.2       1 <0>        -1.0206
     11 O2          1.1323   -1.4477    4.0272 O.2       1 <0>        -1.0280
     12 C8         -0.4835    0.2268    5.0950 C.2       1 <0>        -0.6383
     13 C9          0.4003    0.7258    5.9611 C.2       1 <0>         0.1048
     14 N2         -0.1487    1.6105    6.8031 N.2       1 <0>        -0.4307
     15 C10        -1.4234    1.7975    6.6012 C.2       1 <0>         0.1836
     16 C11        -1.7991    0.9027    5.4354 C.3       1 <0>        -0.0655
     17 C12        -2.3116    2.6939    7.3462 C.2       1 <0>         0.2604
     18 N3         -3.6040    2.8685    7.1340 N.2       1 <0>        -0.2409
     19 N4         -4.0600    3.7284    7.9758 N.2       1 <0>        -0.2259
     20 C13        -3.0817    4.1361    8.7562 C.2       1 <0>         0.1275
     21 O3         -1.9620    3.4871    8.3771 O.3       1 <0>        -0.1683
     22 C14        -3.1914    5.1191    9.8500 C.2       1 <0>         0.6315
     23 O4         -2.2088    5.4148   10.5025 O.2       1 <0>        -0.5019
     24 N5         -4.3806    5.6898   10.1264 N.am      1 <0>        -0.5917
     25 C15        -5.6441    5.4204    9.4246 C.3       1 <0>         0.0958
     26 C16        -6.7243    6.3173   10.0652 C.3       1 <0>        -0.1324
     27 C17        -5.8918    7.4541   10.7146 C.3       1 <0>        -0.1341
     28 C18        -4.6313    6.6829   11.1868 C.3       1 <0>         0.1087
     29 C19        -2.1958   -1.9275    1.5037 C.3       1 <0>        -0.0924
     30 H1          2.9558   -0.1964    1.6034 H         1 <0>         0.0535
     31 H2          2.7822    0.7660    0.1161 H         1 <0>         0.0397
     32 H3          1.7691    1.1285    1.5341 H         1 <0>         0.0735
     33 H4          2.3169   -1.1668   -1.2798 H         1 <0>         0.1023
     34 H5          0.6104   -2.7393   -2.0995 H         1 <0>         0.1014
     35 H6         -1.4628   -3.0897   -0.8206 H         1 <0>         0.1014
     36 H7          1.4434    0.4466    5.9810 H         1 <0>         0.1830
     37 H8         -2.1593    1.4935    4.5932 H         1 <0>         0.1532
     38 H9         -2.5440    0.1672    5.7394 H         1 <0>         0.1473
     39 H10        -5.5399    5.6634    8.3671 H         1 <0>         0.0846
     40 H11        -5.9164    4.3714    9.5409 H         1 <0>         0.0832
     41 H12        -7.3949    6.7167    9.3043 H         1 <0>         0.0883
     42 H13        -7.2828    5.7672   10.8226 H         1 <0>         0.0800
     43 H14        -5.6345    8.2181    9.9809 H         1 <0>         0.0805
     44 H15        -6.4207    7.8907   11.5618 H         1 <0>         0.0902
     45 H16        -4.8229    6.1836   12.1366 H         1 <0>         0.0793
     46 H17        -3.7838    7.3621   11.2785 H         1 <0>         0.0866
     47 H18        -2.0868   -2.8059    2.1398 H         1 <0>         0.0722
     48 H19        -2.3935   -1.0527    2.1232 H         1 <0>         0.0739
     49 H20        -3.0260   -2.0793    0.8138 H         1 <0>         0.0330
@<TRIPOS>BOND
     1    1    2 1
     2    1   30 1
     3    1   31 1
     4    1   32 1
     5    2    7 ar
     6    2    3 ar
     7    3    4 ar
     8    3   33 1
     9    4    5 ar
    10    4   34 1
    11    5    6 ar
    12    5   35 1
    13    6    7 ar
    14    6   29 1
    15    7    8 1
    16    8    9 1
    17    9   10 2
    18    9   11 2
    19    9   12 1
    20   12   16 1
    21   12   13 2
    22   13   14 1
    23   13   36 1
    24   14   15 2
    25   15   16 1
    26   15   17 1
    27   16   37 1
    28   16   38 1
    29   17   21 1
    30   17   18 2
    31   18   19 1
    32   19   20 2
    33   20   21 1
    34   20   22 1
    35   22   23 2
    36   22   24 am
    37   24   28 1
    38   24   25 1
    39   25   26 1
    40   25   39 1
    41   25   40 1
    42   26   27 1
    43   26   41 1
    44   26   42 1
    45   27   28 1
    46   27   43 1
    47   27   44 1
    48   28   45 1
    49   28   46 1
    50   29   47 1
    51   29   48 1
    52   29   49 1
@<TRIPOS>MOLECULE
ZINC12499739
   38    39     0     0     0
SMALL
USER_CHARGES
2-(4-bromo-2-methyl-phenoxy)-N-[(2-hydroxyphenyl)carbamothioyl]acetamide
@<TRIPOS>ATOM
      1 C1         -0.5773   -2.7365   10.4370 C.3       1 <0>        -0.1107
      2 C2         -0.6063   -1.2436   10.6404 C.ar      1 <0>        -0.0996
      3 C3         -0.7075   -0.7214   11.9156 C.ar      1 <0>        -0.0532
      4 C4         -0.7404    0.6487   12.1023 C.ar      1 <0>        -0.1213
      5 C5         -0.6664    1.4992   11.0134 C.ar      1 <0>        -0.0557
      6 C6         -0.5599    0.9814    9.7374 C.ar      1 <0>        -0.2012
      7 C7         -0.5267   -0.3927    9.5479 C.ar      1 <0>         0.1405
      8 O1         -0.4219   -0.9042    8.2931 O.3       1 <0>        -0.2801
      9 C8         -0.3502    0.0311    7.2151 C.3       1 <0>         0.0449
     10 C9         -0.2383   -0.7142    5.9100 C.2       1 <0>         0.4868
     11 O2         -0.2216   -1.9265    5.9037 O.2       1 <0>        -0.3749
     12 N1         -0.1568   -0.0331    4.7499 N.am      1 <0>        -0.6402
     13 C10        -0.0568   -0.6996    3.5828 C.2       1 <0>         0.5094
     14 S1         -0.0332   -2.4114    3.5739 S.2       1 <0>        -0.4808
     15 N2          0.0247   -0.0185    2.4226 N.pl3     1 <0>        -0.6143
     16 C11         0.0133   -0.7081    1.2032 C.ar      1 <0>         0.0956
     17 C12        -0.8917   -1.7388    0.9956 C.ar      1 <0>        -0.0574
     18 C13        -0.9014   -2.4173   -0.2084 C.ar      1 <0>        -0.1180
     19 C14        -0.0110   -2.0713   -1.2081 C.ar      1 <0>        -0.0916
     20 C15         0.8902   -1.0416   -1.0104 C.ar      1 <0>        -0.1394
     21 C16         0.9103   -0.3603    0.1957 C.ar      1 <0>         0.1050
     22 O3          1.7996    0.6492    0.3936 O.3       1 <0>        -0.4979
     23 Br1        -0.8862    1.3605   13.8481 Br        1 <0>        -0.0464
     24 H1          0.4540   -3.0877   10.4695 H         1 <0>         0.0746
     25 H2         -1.1515   -3.2219   11.2262 H         1 <0>         0.0700
     26 H3         -1.0136   -2.9798    9.4682 H         1 <0>         0.0781
     27 H4         -0.7655   -1.3836   12.7668 H         1 <0>         0.1422
     28 H5         -0.6922    2.5688   11.1613 H         1 <0>         0.1372
     29 H6         -0.5028    1.6456    8.8877 H         1 <0>         0.1366
     30 H7          0.5239    0.6692    7.3452 H         1 <0>         0.1011
     31 H8         -1.2505    0.6454    7.2066 H         1 <0>         0.1011
     32 H9         -0.1702    0.9368    4.7549 H         1 <0>         0.4125
     33 H10         0.0913    0.9492    2.4320 H         1 <0>         0.4112
     34 H11        -1.5887   -2.0108    1.7744 H         1 <0>         0.1412
     35 H12        -1.6063   -3.2196   -0.3689 H         1 <0>         0.1339
     36 H13        -0.0224   -2.6040   -2.1475 H         1 <0>         0.1324
     37 H14         1.5815   -0.7711   -1.7948 H         1 <0>         0.1356
     38 H15         2.6420    0.3626    0.7721 H         1 <0>         0.3927
@<TRIPOS>BOND
     1    1    2 1
     2    1   24 1
     3    1   25 1
     4    1   26 1
     5    2    7 ar
     6    2    3 ar
     7    3    4 ar
     8    3   27 1
     9    4    5 ar
    10    4   23 1
    11    5    6 ar
    12    5   28 1
    13    6    7 ar
    14    6   29 1
    15    7    8 1
    16    8    9 1
    17    9   10 1
    18    9   30 1
    19    9   31 1
    20   10   11 2
    21   10   12 am
    22   12   13 1
    23   12   32 1
    24   13   14 2
    25   13   15 1
    26   15   16 1
    27   15   33 1
    28   16   21 ar
    29   16   17 ar
    30   17   18 ar
    31   17   34 1
    32   18   19 ar
    33   18   35 1
    34   19   20 ar
    35   19   36 1
    36   20   21 ar
    37   20   37 1
    38   21   22 1
    39   22   38 1
@<TRIPOS>MOLECULE
ZINC17853568
   37    38     0     0     0
SMALL
USER_CHARGES
4-bromo-2-fluoro-N-[(1S)-1-(4-sulfamoylphenyl)ethyl]benzamide
@<TRIPOS>ATOM
      1 C1         -3.0868    0.9414   -1.3988 C.3       1 <0>        -0.1606
      2 C2         -2.5137    0.9795    0.0193 C.3       1 <0>         0.1768
      3 H1         -2.3301   -0.0380    0.3644 H         1 <0>         0.1075
      4 C3         -1.2190    1.7506    0.0173 C.ar      1 <0>        -0.0331
      5 C4         -0.0126    1.0758    0.0080 C.ar      1 <0>        -0.1265
      6 C5          1.1750    1.7832    0.0004 C.ar      1 <0>        -0.0107
      7 C6          1.1563    3.1654    0.0076 C.ar      1 <0>        -0.6750
      8 C7         -0.0501    3.8402    0.0223 C.ar      1 <0>        -0.0115
      9 C8         -1.2377    3.1328    0.0303 C.ar      1 <0>        -0.1384
     10 S1          2.6701    4.0671   -0.0026 S.o2      1 <0>         2.7012
     11 O1          2.3871    5.3420    0.5575 O.2       1 <0>        -0.9613
     12 O2          3.6616    3.2022    0.5342 O.2       1 <0>        -0.9607
     13 N1          3.0753    4.3257   -1.5873 N.pl3     1 <0>        -1.2495
     14 N2         -3.4705    1.6338    0.9153 N.am      1 <0>        -0.7215
     15 C9         -4.4662    0.9192    1.4757 C.2       1 <0>         0.5623
     16 O3         -4.5705   -0.2685    1.2378 O.2       1 <0>        -0.5124
     17 C10        -5.4305    1.5786    2.3787 C.ar      1 <0>        -0.1629
     18 C11        -5.3137    2.9431    2.6543 C.ar      1 <0>        -0.0514
     19 C12        -6.2167    3.5529    3.4980 C.ar      1 <0>        -0.1088
     20 C13        -7.2404    2.8170    4.0733 C.ar      1 <0>        -0.0391
     21 C14        -7.3638    1.4654    3.8066 C.ar      1 <0>        -0.1363
     22 C15        -6.4684    0.8414    2.9576 C.ar      1 <0>         0.1714
     23 F1         -6.5928   -0.4774    2.6921 F         1 <0>        -0.1049
     24 Br1        -8.4741    3.6646    5.2289 Br        1 <0>        -0.0200
     25 H2         -4.0233    0.3836   -1.3974 H         1 <0>         0.0721
     26 H3         -3.2705    1.9589   -1.7439 H         1 <0>         0.0628
     27 H4         -2.3750    0.4546   -2.0654 H         1 <0>         0.0733
     28 H5          0.0021   -0.0041    0.0020 H         1 <0>         0.1399
     29 H6          2.1175    1.2560   -0.0115 H         1 <0>         0.1479
     30 H7         -0.0647    4.9201    0.0280 H         1 <0>         0.1471
     31 H8         -2.1802    3.6600    0.0422 H         1 <0>         0.1327
     32 H9          2.5021    3.9920   -2.2951 H         1 <0>         0.4170
     33 H10         3.8858    4.8108   -1.8077 H         1 <0>         0.4224
     34 H11        -3.3873    2.5814    1.1051 H         1 <0>         0.4003
     35 H12        -4.5173    3.5191    2.2068 H         1 <0>         0.1443
     36 H13        -6.1266    4.6078    3.7112 H         1 <0>         0.1498
     37 H14        -8.1636    0.8976    4.2585 H         1 <0>         0.1559
@<TRIPOS>BOND
     1    1    2 1
     2    1   25 1
     3    1   26 1
     4    1   27 1
     5    2    3 1
     6    2    4 1
     7    2   14 1
     8    4    9 ar
     9    4    5 ar
    10    5    6 ar
    11    5   28 1
    12    6    7 ar
    13    6   29 1
    14    7    8 ar
    15    7   10 1
    16    8    9 ar
    17    8   30 1
    18    9   31 1
    19   10   11 2
    20   10   12 2
    21   10   13 1
    22   13   32 1
    23   13   33 1
    24   14   15 am
    25   14   34 1
    26   15   16 2
    27   15   17 1
    28   17   22 ar
    29   17   18 ar
    30   18   19 ar
    31   18   35 1
    32   19   20 ar
    33   19   36 1
    34   20   21 ar
    35   20   24 1
    36   21   22 ar
    37   21   37 1
    38   22   23 1
@<TRIPOS>MOLECULE
ZINC39544568
   50    53     0     0     0
SMALL
NO_CHARGES

@<TRIPOS>ATOM
      1 C1         -0.0187    1.5258    0.0104 C.3       1 <0>        -0.1487
      2 C2          0.0021   -0.0041    0.0020 C.3       1 <0>        -0.1321
      3 C3          0.7182   -0.4975   -1.2568 C.3       1 <0>         0.0894
      4 N1          0.7381   -1.9623   -1.2648 N.am      1 <0>        -0.5815
      5 C4         -0.3829   -2.6499   -1.5599 C.2       1 <0>         0.4864
      6 O1         -1.4082   -2.0559   -1.8188 O.2       1 <0>        -0.5687
      7 C5         -0.3625   -4.1567   -1.5682 C.3       1 <0>        -0.0097
      8 H1         -0.0715   -4.5383   -0.5895 H         1 <0>         0.1426
      9 C6          0.5969   -4.6762   -2.6556 C.3       1 <0>        -0.0614
     10 C7         -0.2850   -5.4993   -3.5672 C.2       1 <0>        -0.1057
     11 C8         -1.5303   -5.4665   -3.1143 C.2       1 <0>         0.1527
     12 N2         -2.6300   -6.1362   -3.6686 N.pl3     1 <0>        -0.6560
     13 C9         -3.5517   -6.6350   -2.7327 C.ar      1 <0>         0.1786
     14 C10        -4.6169   -7.4141   -3.1609 C.ar      1 <0>        -0.1650
     15 C11        -5.5285   -7.8961   -2.2417 C.ar      1 <0>        -0.0748
     16 C12        -5.3742   -7.5993   -0.8995 C.ar      1 <0>        -0.1616
     17 C13        -4.3112   -6.8273   -0.4725 C.ar      1 <0>        -0.0602
     18 C14        -3.3889   -6.3434   -1.3857 C.ar      1 <0>        -0.1864
     19 C15        -2.2264   -5.5254   -0.8878 C.3       1 <0>         0.0196
     20 N3         -1.6790   -4.6867   -1.9563 N.4       1 <0>        -0.3137
     21 C16         0.1684   -6.2233   -4.7700 C.ar      1 <0>        -0.0529
     22 C17        -0.1140   -5.7190   -6.0406 C.ar      1 <0>        -0.0930
     23 C18         0.3128   -6.4009   -7.1617 C.ar      1 <0>        -0.1252
     24 C19         1.0196   -7.5834   -7.0315 C.ar      1 <0>        -0.0992
     25 C20         1.3049   -8.0929   -5.7778 C.ar      1 <0>        -0.1434
     26 C21         0.8896   -7.4175   -4.6430 C.ar      1 <0>         0.1233
     27 O2          1.1748   -7.9145   -3.4107 O.3       1 <0>        -0.4913
     28 Br1         2.3019   -2.8684   -0.8699 Br        1 <0>        -0.0677
     29 H2          1.0039    1.9031    0.0027 H         1 <0>         0.0530
     30 H3         -0.5459    1.8868   -0.8726 H         1 <0>         0.0528
     31 H4         -0.5289    1.8773    0.9072 H         1 <0>         0.0528
     32 H5          0.5293   -0.3651    0.8851 H         1 <0>         0.0588
     33 H6         -1.0205   -0.3814    0.0098 H         1 <0>         0.0630
     34 H7          0.1910   -0.1364   -2.1398 H         1 <0>         0.0602
     35 H8          1.7408   -0.1202   -1.2645 H         1 <0>         0.0736
     36 H9          1.0395   -3.8439   -3.2029 H         1 <0>         0.1012
     37 H10         1.3741   -5.2989   -2.2126 H         1 <0>         0.1126
     38 H11        -4.7333   -7.6428   -4.2100 H         1 <0>         0.1258
     39 H12        -6.3591   -8.5034   -2.5699 H         1 <0>         0.1271
     40 H13        -6.0891   -7.9728   -0.1814 H         1 <0>         0.1247
     41 H14        -4.1987   -6.6003    0.5773 H         1 <0>         0.1268
     42 H15        -2.5615   -4.8877   -0.0698 H         1 <0>         0.1127
     43 H16        -1.4475   -6.1950   -0.5229 H         1 <0>         0.1141
     44 H17        -0.6660   -4.7967   -6.1460 H         1 <0>         0.1272
     45 H18         0.0941   -6.0103   -8.1445 H         1 <0>         0.1284
     46 H19         1.3500   -8.1115   -7.9138 H         1 <0>         0.1284
     47 H20         1.8563   -9.0168   -5.6839 H         1 <0>         0.1308
     48 H21         0.5017   -8.5157   -3.0636 H         1 <0>         0.3885
     49 H22        -2.7459   -6.2465   -4.6253 H         1 <0>         0.4271
     50 H23        -2.3120   -3.9227   -2.1397 H         1 <0>         0.4160
@<TRIPOS>BOND
     1    1    2 1
     2    1   29 1
     3    1   30 1
     4    1   31 1
     5    2    3 1
     6    2   32 1
     7    2   33 1
     8    3    4 1
     9    3   34 1
    10    3   35 1
    11    4    5 am
    12    4   28 1
    13    5    6 2
    14    5    7 1
    15    7    8 1
    16    7   20 1
    17    7    9 1
    18    9   10 1
    19    9   36 1
    20    9   37 1
    21   10   11 2
    22   10   21 1
    23   11   20 1
    24   11   12 1
    25   12   13 1
    26   12   49 1
    27   13   18 ar
    28   13   14 ar
    29   14   15 ar
    30   14   38 1
    31   15   16 ar
    32   15   39 1
    33   16   17 ar
    34   16   40 1
    35   17   18 ar
    36   17   41 1
    37   18   19 1
    38   19   20 1
    39   19   42 1
    40   19   43 1
    41   20   50 1
    42   21   26 ar
    43   21   22 ar
    44   22   23 ar
    45   22   44 1
    46   23   24 ar
    47   23   45 1
    48   24   25 ar
    49   24   46 1
    50   25   26 ar
    51   25   47 1
    52   26   27 1
    53   27   48 1
@<TRIPOS>MOLECULE
ZINC50671060
   31    32     0     0     0
SMALL
USER_CHARGES

@<TRIPOS>ATOM
      1 C1         -0.5096    1.7901   -0.8108 C.3       1 <0>        -0.1622
      2 C2         -0.2182    0.4135   -0.2099 C.3       1 <0>         0.2411
      3 H1          0.2123    0.5347    0.7841 H         1 <0>         0.1136
      4 C3          0.7556   -0.3240   -1.0925 C.2       1 <0>        -0.1555
      5 C4          2.0919   -0.4872   -0.9385 C.2       1 <0>        -0.1345
      6 C5          2.7928   -1.2115   -1.8851 C.2       1 <0>        -0.1356
      7 C6          2.1210   -1.7372   -2.9399 C.2       1 <0>        -0.1191
      8 S1          0.4462   -1.2156   -2.6079 S.3       1 <0>         0.1021
      9 Cl1         2.7305   -2.6786   -4.2650 Cl        1 <0>         0.0202
     10 N1         -1.4643   -0.3506   -0.1125 N.pl3     1 <0>        -1.1158
     11 S2         -1.9503   -0.9593    1.3489 S.o2      1 <0>         2.6971
     12 O1         -3.2000   -1.5984    1.1273 O.2       1 <0>        -0.9473
     13 O2         -0.8314   -1.6432    1.8962 O.2       1 <0>        -0.9403
     14 C7         -2.2674    0.4142    2.4060 C.ar      1 <0>        -0.7978
     15 C8         -1.5058    0.6138    3.5435 C.ar      1 <0>         0.0963
     16 C9         -1.7908    1.7098    4.3480 C.ar      1 <0>        -0.2277
     17 C10        -2.8184    2.5614    3.9914 C.ar      1 <0>         0.2444
     18 N2         -3.5283    2.3453    2.9003 N.ar      1 <0>        -0.5378
     19 C11        -3.2831    1.3155    2.1049 C.ar      1 <0>         0.5065
     20 N3         -4.0520    1.1300    0.9613 N.pl3     1 <0>        -0.8303
     21 Br1        -0.7832    2.0321    5.9154 Br        1 <0>        -0.0215
     22 H2          0.4176    2.3585   -0.8833 H         1 <0>         0.0800
     23 H3         -0.9401    1.6688   -1.8048 H         1 <0>         0.0709
     24 H4         -1.2139    2.3235   -0.1724 H         1 <0>         0.0707
     25 H5          2.6021   -0.0575   -0.0891 H         1 <0>         0.1455
     26 H6          3.8585   -1.3563   -1.7864 H         1 <0>         0.1455
     27 H7         -2.0048   -0.4999   -0.9040 H         1 <0>         0.4208
     28 H8         -0.7079   -0.0672    3.8004 H         1 <0>         0.1644
     29 H9         -3.0438    3.4149    4.6137 H         1 <0>         0.1770
     30 H10        -3.8616    0.3901    0.3636 H         1 <0>         0.4096
     31 H11        -4.7788    1.7404    0.7613 H         1 <0>         0.4198
@<TRIPOS>BOND
     1    1    2 1
     2    1   22 1
     3    1   23 1
     4    1   24 1
     5    2    3 1
     6    2    4 1
     7    2   10 1
     8    4    8 1
     9    4    5 2
    10    5    6 1
    11    5   25 1
    12    6    7 2
    13    6   26 1
    14    7    8 1
    15    7    9 1
    16   10   11 1
    17   10   27 1
    18   11   12 2
    19   11   13 2
    20   11   14 1
    21   14   19 ar
    22   14   15 ar
    23   15   16 ar
    24   15   28 1
    25   16   17 ar
    26   16   21 1
    27   17   18 ar
    28   17   29 1
    29   18   19 ar
    30   19   20 1
    31   20   30 1
    32   20   31 1
@<TRIPOS>MOLECULE
ZINC66122198
   48    50     0     0     0
SMALL
USER_CHARGES

@<TRIPOS>ATOM
      1 C1         -0.0282    1.3905   -0.0001 C.ar      1 <0>        -0.1050
      2 C2          1.1569    2.1019   -0.0096 C.ar      1 <0>        -0.0821
      3 C3          2.3662    1.4305   -0.0229 C.ar      1 <0>        -0.0956
      4 C4          2.3889    0.0474   -0.0268 C.ar      1 <0>        -0.0830
      5 C5          1.2034   -0.6631   -0.0173 C.ar      1 <0>        -0.1328
      6 C6         -0.0050    0.0083   -0.0039 C.ar      1 <0>        -0.0312
      7 C7         -1.2973   -0.7668    0.0064 C.3       1 <0>        -0.1343
      8 H1         -2.1526   -0.2490    0.4406 H         1 <0>         0.1275
      9 C8         -1.2113   -2.2810    0.2081 C.3       1 <0>        -0.1845
     10 C9         -1.5644   -1.7106   -1.1678 C.3       1 <0>         0.1200
     11 H2         -2.5955   -1.8140   -1.5059 H         1 <0>         0.1462
     12 N1         -0.5444   -1.7916   -2.2162 N.am      1 <0>        -0.7189
     13 C10        -0.8887   -2.1673   -3.4639 C.2       1 <0>         0.7129
     14 O1         -2.0264   -2.5262   -3.6985 O.2       1 <0>        -0.5859
     15 N2          0.0282   -2.1454   -4.4514 N.am      1 <0>        -0.6263
     16 C11         1.4337   -1.8307   -4.1611 C.3       1 <0>         0.1104
     17 C12         2.3156   -2.9514   -4.7207 C.3       1 <0>        -0.1351
     18 C13         2.0085   -3.1424   -6.2078 C.3       1 <0>        -0.1150
     19 C14         0.5432   -3.5494   -6.3796 C.3       1 <0>        -0.1033
     20 H3          0.3544   -4.4704   -5.8281 H         1 <0>         0.0770
     21 C15        -0.3576   -2.4415   -5.8379 C.3       1 <0>         0.1306
     22 C16         0.2459   -3.7728   -7.8637 C.3       1 <0>        -0.0965
     23 C17        -1.1816   -4.2993   -8.0243 C.3       1 <0>        -0.1468
     24 C18        -1.4745   -4.5194   -9.4861 C.2       1 <0>         0.5153
     25 O2         -0.6250   -4.2788  -10.3176 O.2       1 <0>        -0.5444
     26 N3         -2.6803   -4.9836   -9.8694 N.am      1 <0>        -0.8587
     27 Br1         3.9878    2.4031   -0.0365 Br        1 <0>        -0.0471
     28 H4         -0.9724    1.9146    0.0148 H         1 <0>         0.1342
     29 H5          1.1386    3.1817   -0.0070 H         1 <0>         0.1352
     30 H6          3.3329   -0.4772   -0.0375 H         1 <0>         0.1350
     31 H7          1.2211   -1.7429   -0.0203 H         1 <0>         0.1315
     32 H8         -0.2199   -2.7166    0.3332 H         1 <0>         0.1015
     33 H9         -2.0102   -2.7595    0.7746 H         1 <0>         0.1122
     34 H10         0.3789   -1.5747   -2.0123 H         1 <0>         0.3975
     35 H11         1.7014   -0.8851   -4.6326 H         1 <0>         0.0727
     36 H12         1.5766   -1.7572   -3.0830 H         1 <0>         0.0715
     37 H13         3.3652   -2.6843   -4.5974 H         1 <0>         0.0786
     38 H14         2.1101   -3.8780   -4.1848 H         1 <0>         0.0680
     39 H15         2.1906   -2.2083   -6.7391 H         1 <0>         0.0679
     40 H16         2.6521   -3.9226   -6.6142 H         1 <0>         0.0702
     41 H17        -1.3963   -2.7708   -5.8657 H         1 <0>         0.0959
     42 H18        -0.2393   -1.5468   -6.4491 H         1 <0>         0.0675
     43 H19         0.3479   -2.8297   -8.4007 H         1 <0>         0.0741
     44 H20         0.9492   -4.4999   -8.2697 H         1 <0>         0.0762
     45 H21        -1.2836   -5.2424   -7.4873 H         1 <0>         0.0958
     46 H22        -1.8849   -3.5722   -7.6183 H         1 <0>         0.0972
     47 H23        -3.3597   -5.1760   -9.2043 H         1 <0>         0.4024
     48 H24        -2.8688   -5.1252  -10.8103 H         1 <0>         0.4012
@<TRIPOS>BOND
     1    1    6 ar
     2    1    2 ar
     3    1   28 1
     4    2    3 ar
     5    2   29 1
     6    3    4 ar
     7    3   27 1
     8    4    5 ar
     9    4   30 1
    10    5    6 ar
    11    5   31 1
    12    6    7 1
    13    7    8 1
    14    7   10 1
    15    7    9 1
    16    9   10 1
    17    9   32 1
    18    9   33 1
    19   10   11 1
    20   10   12 1
    21   12   13 am
    22   12   34 1
    23   13   14 2
    24   13   15 am
    25   15   21 1
    26   15   16 1
    27   16   17 1
    28   16   35 1
    29   16   36 1
    30   17   18 1
    31   17   37 1
    32   17   38 1
    33   18   19 1
    34   18   39 1
    35   18   40 1
    36   19   20 1
    37   19   21 1
    38   19   22 1
    39   21   41 1
    40   21   42 1
    41   22   23 1
    42   22   43 1
    43   22   44 1
    44   23   24 1
    45   23   45 1
    46   23   46 1
    47   24   25 2
    48   24   26 am
    49   26   47 1
    50   26   48 1
@<TRIPOS>MOLECULE
ZINC11591872
   53    57     0     0     0
SMALL
USER_CHARGES
N-(1-adamantylcarbamoyl)-2-[[4-amino-5-(2-thienyl)-1,2,4-triazol-3-yl]sulfanyl]acetamide
@<TRIPOS>ATOM
      1 C1         -1.0805    1.9149    0.0166 C.2       1 <0>        -0.1626
      2 C2         -0.8658    3.2748    0.0265 C.2       1 <0>        -0.0982
      3 C3          0.4258    3.7375    0.0170 C.2       1 <0>        -0.1080
      4 S1          1.3606    2.2165    0.0010 S.3       1 <0>         0.1123
      5 C4         -0.0126    1.0758    0.0080 C.2       1 <0>        -0.1642
      6 C5          0.9137    5.1260    0.0193 C.2       1 <0>         0.3050
      7 N1          0.2088    6.2032   -0.2486 N.2       1 <0>        -0.2530
      8 N2          0.9503    7.2481   -0.1511 N.2       1 <0>        -0.2737
      9 C6          2.1752    6.9049    0.1763 C.2       1 <0>         0.1106
     10 N3          2.1967    5.5431    0.2966 N.pl3     1 <0>        -0.3014
     11 N4          3.2672    4.7598    0.6229 N.3       1 <0>        -0.5807
     12 S2          3.5375    7.9965    0.4151 S.3       1 <0>         0.0865
     13 C7          2.7309    9.5828    0.0850 C.3       1 <0>        -0.1457
     14 C8          3.7342   10.6973    0.2346 C.2       1 <0>         0.5402
     15 O1          4.8812   10.4441    0.5347 O.2       1 <0>        -0.4495
     16 N5          3.3563   11.9755    0.0348 N.am      1 <0>        -0.6861
     17 C9          4.2536   12.9722    0.1686 C.2       1 <0>         0.6965
     18 O2          5.4035   12.7184    0.4694 O.2       1 <0>        -0.5186
     19 N6          3.8757   14.2504   -0.0312 N.am      1 <0>        -0.7304
     20 C10         4.8511   15.3338    0.1142 C.3       1 <0>         0.1995
     21 C11         5.4074   15.3314    1.5395 C.3       1 <0>        -0.1242
     22 C12         6.4260   16.4629    1.6914 C.3       1 <0>        -0.0821
     23 C13         5.7441   17.8038    1.4124 C.3       1 <0>        -0.1119
     24 C14         5.1878   17.8063   -0.0129 C.3       1 <0>        -0.0800
     25 C15         4.1692   16.6748   -0.1648 C.3       1 <0>        -0.1139
     26 C16         6.3320   17.5993   -1.0073 C.3       1 <0>        -0.1119
     27 C17         7.0139   16.2584   -0.7283 C.3       1 <0>        -0.0821
     28 C18         7.5702   16.2559    0.6969 C.3       1 <0>        -0.1104
     29 C19         5.9953   15.1269   -0.8802 C.3       1 <0>        -0.1242
     30 H1         -2.0858    1.5202    0.0186 H         1 <0>         0.1429
     31 H2         -1.6976    3.9637    0.0375 H         1 <0>         0.1452
     32 H3          0.0021   -0.0041    0.0020 H         1 <0>         0.1924
     33 H4          3.7726    4.4759   -0.2030 H         1 <0>         0.3706
     34 H5          3.8756    5.2321    1.2746 H         1 <0>         0.3818
     35 H6          2.3345    9.5846   -0.9304 H         1 <0>         0.1370
     36 H7          1.9157    9.7303    0.7935 H         1 <0>         0.1374
     37 H8          2.4386   12.1781   -0.2053 H         1 <0>         0.4133
     38 H9          2.9580   14.4530   -0.2713 H         1 <0>         0.3980
     39 H10         4.5922   15.4788    2.2479 H         1 <0>         0.0602
     40 H11         5.8932   14.3761    1.7382 H         1 <0>         0.0869
     41 H12         6.8223   16.4611    2.7068 H         1 <0>         0.0733
     42 H13         6.4697   18.6099    1.5206 H         1 <0>         0.0659
     43 H14         4.9289   17.9512    2.1208 H         1 <0>         0.0629
     44 H15         4.7020   18.7616   -0.2117 H         1 <0>         0.0765
     45 H16         3.7729   16.6765   -1.1802 H         1 <0>         0.0698
     46 H17         3.3540   16.8222    0.5437 H         1 <0>         0.0698
     47 H18         5.9357   17.6011   -2.0227 H         1 <0>         0.0628
     48 H19         7.0576   18.4054   -0.8991 H         1 <0>         0.0659
     49 H20         7.8290   16.1110   -1.4368 H         1 <0>         0.0732
     50 H21         8.2958   17.0620    0.8051 H         1 <0>         0.0636
     51 H22         8.0560   15.3006    0.8957 H         1 <0>         0.0657
     52 H23         6.4811   14.1716   -0.6815 H         1 <0>         0.0869
     53 H24         5.5989   15.1287   -1.8956 H         1 <0>         0.0601
@<TRIPOS>BOND
     1    1    5 2
     2    1    2 1
     3    1   30 1
     4    2    3 2
     5    2   31 1
     6    3    4 1
     7    3    6 1
     8    4    5 1
     9    5   32 1
    10    6   10 1
    11    6    7 2
    12    7    8 1
    13    8    9 2
    14    9   10 1
    15    9   12 1
    16   10   11 1
    17   11   33 1
    18   11   34 1
    19   12   13 1
    20   13   14 1
    21   13   35 1
    22   13   36 1
    23   14   15 2
    24   14   16 am
    25   16   17 am
    26   16   37 1
    27   17   18 2
    28   17   19 am
    29   19   20 1
    30   19   38 1
    31   20   25 1
    32   20   29 1
    33   20   21 1
    34   21   22 1
    35   21   39 1
    36   21   40 1
    37   22   28 1
    38   22   23 1
    39   22   41 1
    40   23   24 1
    41   23   42 1
    42   23   43 1
    43   24   25 1
    44   24   26 1
    45   24   44 1
    46   25   45 1
    47   25   46 1
    48   26   27 1
    49   26   47 1
    50   26   48 1
    51   27   28 1
    52   27   29 1
    53   27   49 1
    54   28   50 1
    55   28   51 1
    56   29   52 1
    57   29   53 1
@<TRIPOS>MOLECULE
ZINC03552524
   47    50     0     0     0
SMALL
USER_CHARGES
2-[(4-amino-5,6,7,8-tetrahydrobenzothiopheno[3,2-e]pyrimidin-2-yl)sulfanyl]-N-(2-furylmethylcarbamoyl)acetamide
@<TRIPOS>ATOM
      1 C1          1.8330   -6.2764    1.1854 C.2       1 <0>        -0.2187
      2 C2          2.1085   -5.0141    0.6111 C.2       1 <0>        -0.1785
      3 C3          2.1428   -4.1258    1.6206 C.2       1 <0>        -0.0411
      4 O1          1.9097   -4.7803    2.7700 O.3       1 <0>        -0.1714
      5 C4          1.7153   -6.0839    2.5115 C.2       1 <0>        -0.0249
      6 C5          2.4047   -2.6479    1.4856 C.3       1 <0>         0.2215
      7 N1          1.1356   -1.9430    1.2889 N.am      1 <0>        -0.7463
      8 C6          1.1245   -0.6032    1.1429 C.2       1 <0>         0.7004
      9 O2          2.1674    0.0202    1.1744 O.2       1 <0>        -0.5298
     10 N2         -0.0431    0.0453    0.9620 N.am      1 <0>        -0.6983
     11 C7         -0.0542    1.3851    0.8160 C.2       1 <0>         0.5383
     12 O3          0.9861    2.0069    0.8474 O.2       1 <0>        -0.4518
     13 C8         -1.3591    2.1095    0.6074 C.3       1 <0>        -0.1577
     14 S1         -1.0446    3.8847    0.4468 S.3       1 <0>         0.1131
     15 C9         -2.6917    4.4678    0.2194 C.ar      1 <0>         0.3439
     16 N3         -3.6958    3.5985    0.2133 N.ar      1 <0>        -0.6065
     17 C10        -4.9517    3.9765    0.0468 C.ar      1 <0>         0.5093
     18 C11        -5.2446    5.3578   -0.1322 C.ar      1 <0>        -0.2575
     19 C12        -6.5462    5.9991   -0.3328 C.2       1 <0>        -0.0796
     20 C13        -6.5519    7.3390   -0.4780 C.2       1 <0>        -0.1520
     21 S2         -4.8510    7.8247   -0.3592 S.3       1 <0>         0.1183
     22 C14        -4.1320    6.2218   -0.1142 C.ar      1 <0>         0.1608
     23 N4         -2.9062    5.7673    0.0630 N.ar      1 <0>        -0.5043
     24 C15        -7.7419    8.2238   -0.6940 C.3       1 <0>        -0.0423
     25 C16        -8.9329    7.3439   -1.0994 C.3       1 <0>        -0.1150
     26 C17        -9.0182    6.1586   -0.1333 C.3       1 <0>        -0.1199
     27 C18        -7.8486    5.2045   -0.3775 C.3       1 <0>        -0.0706
     28 N5         -5.9696    3.0403    0.0471 N.pl3     1 <0>        -0.8537
     29 H1          1.7353   -7.2149    0.6601 H         1 <0>         0.1517
     30 H2          2.2615   -4.8035   -0.4370 H         1 <0>         0.1516
     31 H3          1.5054   -6.8487    3.2446 H         1 <0>         0.2060
     32 H4          2.8924   -2.2770    2.3992 H         1 <0>         0.0873
     33 H5          3.0611   -2.4693    0.6212 H         1 <0>         0.1017
     34 H6          0.1917   -2.5072    1.2604 H         1 <0>         0.4221
     35 H7         -0.9869   -0.5189    0.9335 H         1 <0>         0.4363
     36 H8         -1.8422    1.7383   -0.3085 H         1 <0>         0.1327
     37 H9         -2.0196    1.9305    1.4686 H         1 <0>         0.1325
     38 H10        -7.9719    8.7627    0.2370 H         1 <0>         0.0882
     39 H11        -7.5204    8.9480   -1.4917 H         1 <0>         0.0867
     40 H12        -9.8593    7.9348   -1.0488 H         1 <0>         0.0790
     41 H13        -8.7864    6.9791   -2.1267 H         1 <0>         0.0707
     42 H14        -8.9769    6.5262    0.9026 H         1 <0>         0.0711
     43 H15        -9.9647    5.6217   -0.2943 H         1 <0>         0.0751
     44 H16        -7.9550    4.7301   -1.3642 H         1 <0>         0.0847
     45 H17        -7.8319    4.4289    0.4023 H         1 <0>         0.0775
     46 H18        -7.0124    3.3616   -0.0920 H         1 <0>         0.4328
     47 H19        -5.7364    1.9744    0.1864 H         1 <0>         0.4266
@<TRIPOS>BOND
     1    1    5 2
     2    1    2 1
     3    1   29 1
     4    2    3 2
     5    2   30 1
     6    3    4 1
     7    3    6 1
     8    4    5 1
     9    5   31 1
    10    6    7 1
    11    6   32 1
    12    6   33 1
    13    7    8 am
    14    7   34 1
    15    8    9 2
    16    8   10 am
    17   10   11 am
    18   10   35 1
    19   11   12 2
    20   11   13 1
    21   13   14 1
    22   13   36 1
    23   13   37 1
    24   14   15 1
    25   15   23 ar
    26   15   16 ar
    27   16   17 ar
    28   17   18 ar
    29   17   28 1
    30   18   22 ar
    31   18   19 1
    32   19   27 1
    33   19   20 2
    34   20   21 1
    35   20   24 1
    36   21   22 1
    37   22   23 ar
    38   24   25 1
    39   24   38 1
    40   24   39 1
    41   25   26 1
    42   25   40 1
    43   25   41 1
    44   26   27 1
    45   26   42 1
    46   26   43 1
    47   27   44 1
    48   27   45 1
    49   28   46 1
    50   28   47 1
@<TRIPOS>MOLECULE
ZINC39335264
   51    53     0     0     0
SMALL
USER_CHARGES

@<TRIPOS>ATOM
      1 C1         -0.0187    1.3753   -0.0231 C.ar      1 <0>        -0.1343
      2 C2          1.0869    1.9470   -0.6262 C.ar      1 <0>        -0.0616
      3 C3          2.2949    1.2780   -0.6327 C.ar      1 <0>        -0.1330
      4 C4          2.3991    0.0299   -0.0322 C.ar      1 <0>         0.1980
      5 C5          1.2874   -0.5411    0.5729 C.ar      1 <0>        -0.2174
      6 C6          0.0818    0.1331    0.5755 C.ar      1 <0>        -0.0504
      7 C7          1.3959   -1.8951    1.2255 C.3       1 <0>         0.5088
      8 F1          0.1548   -2.2554    1.7612 F         1 <0>        -0.1695
      9 F2          1.7853   -2.8423    0.2725 F         1 <0>        -0.1797
     10 F3          2.3485   -1.8445    2.2489 F         1 <0>        -0.1747
     11 N1          3.6216   -0.6508   -0.0375 N.am      1 <0>        -0.6683
     12 C8          4.7754    0.0370   -0.1474 C.2       1 <0>         0.5412
     13 O1          4.7614    1.2498   -0.1409 O.2       1 <0>        -0.4822
     14 C9          6.0829   -0.7008   -0.2784 C.3       1 <0>        -0.1787
     15 S1          7.4414    0.4944   -0.4063 S.3       1 <0>         0.0369
     16 C10         8.8813   -0.5108   -0.5513 C.2       1 <0>         0.1572
     17 C11        10.1017    0.0758   -0.6625 C.2       1 <0>        -0.0803
     18 C12        11.3604   -0.7385   -0.7780 C.3       1 <0>         0.1056
     19 C13        12.2606   -0.1283   -1.8574 C.3       1 <0>        -0.1089
     20 C14        13.5430   -0.9539   -1.9759 C.3       1 <0>        -0.1688
     21 C15        14.2825   -0.9428   -0.6366 C.3       1 <0>        -0.1169
     22 C16        13.3845   -1.5433    0.4469 C.3       1 <0>        -0.1206
     23 C17        12.1020   -0.7176    0.5626 C.3       1 <0>        -0.1065
     24 C18        11.0401   -2.1609   -1.1459 C.2       1 <0>        -0.2450
     25 C19         9.7866   -2.6653   -1.0175 C.2       1 <0>         0.4810
     26 N2          8.7577   -1.8819   -0.5450 N.pl3     1 <0>        -0.6501
     27 N3          9.5433   -3.9740   -1.3577 N.pl3     1 <0>        -0.8545
     28 C20        12.0840   -3.0047   -1.6449 C.1       1 <0>         0.2983
     29 N4         12.9122   -3.6740   -2.0408 N.1       1 <0>        -0.4539
     30 C21        10.1915    1.5050   -0.6705 C.1       1 <0>         0.2543
     31 N5         10.2627    2.6388   -0.6768 N.1       1 <0>        -0.4000
     32 H1         -0.9613    1.9024   -0.0157 H         1 <0>         0.1395
     33 H2          1.0052    2.9175   -1.0929 H         1 <0>         0.1399
     34 H3          3.1576    1.7246   -1.1045 H         1 <0>         0.1576
     35 H4         -0.7833   -0.3105    1.0460 H         1 <0>         0.1446
     36 H5          3.6386   -1.6177    0.0380 H         1 <0>         0.4145
     37 H6          6.2342   -1.3305    0.5984 H         1 <0>         0.1290
     38 H7          6.0609   -1.3230   -1.1731 H         1 <0>         0.1316
     39 H8         11.7362   -0.1321   -2.8130 H         1 <0>         0.0678
     40 H9         12.5120    0.8966   -1.5845 H         1 <0>         0.0657
     41 H10        13.2909   -1.9801   -2.2433 H         1 <0>         0.0994
     42 H11        14.1819   -0.5240   -2.7473 H         1 <0>         0.0605
     43 H12        15.1950   -1.5331   -0.7205 H         1 <0>         0.0590
     44 H13        14.5366    0.0832   -0.3704 H         1 <0>         0.0607
     45 H14        13.1328   -2.5702    0.1820 H         1 <0>         0.0640
     46 H15        13.9106   -1.5330    1.4015 H         1 <0>         0.0635
     47 H16        12.3537    0.3105    0.8227 H         1 <0>         0.0670
     48 H17        11.4643   -1.1431    1.3374 H         1 <0>         0.0676
     49 H18         7.9456   -2.2943   -0.2114 H         1 <0>         0.4162
     50 H19        10.2652   -4.5316   -1.6875 H         1 <0>         0.4217
     51 H20         8.6495   -4.3402   -1.2682 H         1 <0>         0.4042
@<TRIPOS>BOND
     1    1    6 ar
     2    1    2 ar
     3    1   32 1
     4    2    3 ar
     5    2   33 1
     6    3    4 ar
     7    3   34 1
     8    4    5 ar
     9    4   11 1
    10    5    6 ar
    11    5    7 1
    12    6   35 1
    13    7    8 1
    14    7    9 1
    15    7   10 1
    16   11   12 am
    17   11   36 1
    18   12   13 2
    19   12   14 1
    20   14   15 1
    21   14   37 1
    22   14   38 1
    23   15   16 1
    24   16   26 1
    25   16   17 2
    26   17   18 1
    27   17   30 1
    28   18   23 1
    29   18   19 1
    30   18   24 1
    31   19   20 1
    32   19   39 1
    33   19   40 1
    34   20   21 1
    35   20   41 1
    36   20   42 1
    37   21   22 1
    38   21   43 1
    39   21   44 1
    40   22   23 1
    41   22   45 1
    42   22   46 1
    43   23   47 1
    44   23   48 1
    45   24   25 2
    46   24   28 1
    47   25   26 1
    48   25   27 1
    49   26   49 1
    50   27   50 1
    51   27   51 1
    52   28   29 3
    53   30   31 3
@<TRIPOS>MOLECULE
ZINC16022132
   61    66     0     0     0
SMALL
USER_CHARGES

@<TRIPOS>ATOM
      1 C1         -0.0184    1.5028    0.0103 C.3       1 <0>        -0.1106
      2 C2          0.0021   -0.0041    0.0020 C.ar      1 <0>        -0.1027
      3 C3          0.0058   -0.6907   -1.1985 C.ar      1 <0>        -0.0745
      4 C4          0.0239   -2.0699   -1.2123 C.ar      1 <0>        -0.1359
      5 C5          0.0395   -2.7825   -0.0155 C.ar      1 <0>         0.1378
      6 C6          0.0361   -2.0809    1.1863 C.ar      1 <0>        -0.1297
      7 C7          0.0229   -0.7040    1.1953 C.ar      1 <0>        -0.0139
      8 C8          0.0566   -3.1219    2.2695 C.3       1 <0>         0.1232
      9 C9         -1.1654   -3.0003    3.1883 C.3       1 <0>        -0.1055
     10 H1         -1.9930   -3.6352    2.8719 H         1 <0>         0.1386
     11 C10        -0.6303   -3.3652    4.6010 C.3       1 <0>        -0.1240
     12 H2         -1.1835   -4.1823    5.0641 H         1 <0>         0.1436
     13 C11         0.8594   -3.7051    4.3857 C.3       1 <0>         0.0816
     14 H3          0.9893   -4.7805    4.2648 H         1 <0>         0.0924
     15 N1          1.2363   -2.9709    3.1412 N.3       1 <0>        -0.6148
     16 C12         1.6964   -3.1976    5.5616 C.3       1 <0>        -0.0684
     17 C13         3.1252   -3.6458    5.3916 C.ar      1 <0>        -0.0767
     18 C14         3.5348   -4.8580    5.9151 C.ar      1 <0>        -0.1067
     19 C15         4.8443   -5.2736    5.7618 C.ar      1 <0>        -0.1284
     20 C16         5.7495   -4.4748    5.0818 C.ar      1 <0>         0.0770
     21 C17         5.3372   -3.2549    4.5544 C.ar      1 <0>         0.0812
     22 C18         4.0219   -2.8465    4.7074 C.ar      1 <0>        -0.1193
     23 O1          6.2219   -2.4674    3.8861 O.3       1 <0>        -0.4871
     24 O2          7.0382   -4.8819    4.9304 O.3       1 <0>        -0.4886
     25 C19        -0.7570   -2.0689    5.3680 C.2       1 <0>         0.5451
     26 O3         -0.4345   -1.9051    6.5250 O.2       1 <0>        -0.4620
     27 N2         -1.2806   -1.1301    4.5710 N.am      1 <0>        -0.5633
     28 C20        -1.5616   -1.5461    3.3146 C.2       1 <0>         0.5423
     29 O4         -2.0471   -0.8732    2.4308 O.2       1 <0>        -0.4506
     30 C21        -1.5365    0.2398    5.0227 C.3       1 <0>         0.1248
     31 C22        -0.2320    0.8764    5.5450 C.3       1 <0>        -0.1316
     32 C23        -0.6853    1.7365    6.7508 C.3       1 <0>        -0.1196
     33 C24        -1.7850    0.8608    7.4010 C.3       1 <0>        -0.1200
     34 C25        -2.5240    0.2299    6.2028 C.3       1 <0>        -0.1298
     35 C26         0.0716   -4.4399    1.5453 C.2       1 <0>         0.5123
     36 O5          0.0907   -5.5430    2.0492 O.2       1 <0>        -0.4848
     37 N3          0.0596   -4.1575    0.2281 N.am      1 <0>        -0.6550
     38 H4          1.0042    1.8801    0.0026 H         1 <0>         0.0704
     39 H5         -0.5455    1.8639   -0.8728 H         1 <0>         0.0682
     40 H6         -0.5286    1.8543    0.9071 H         1 <0>         0.0669
     41 H7         -0.0060   -0.1443   -2.1300 H         1 <0>         0.1326
     42 H8          0.0256   -2.5988   -2.1539 H         1 <0>         0.1280
     43 H9          0.0246   -0.1702    2.1342 H         1 <0>         0.1218
     44 H10         2.0541   -3.3828    2.7174 H         1 <0>         0.3535
     45 H11         1.6583   -2.1087    5.5916 H         1 <0>         0.0872
     46 H12         1.2975   -3.6009    6.4923 H         1 <0>         0.0964
     47 H13         2.8302   -5.4815    6.4454 H         1 <0>         0.1308
     48 H14         5.1619   -6.2207    6.1724 H         1 <0>         0.1334
     49 H15         3.6984   -1.9019    4.2958 H         1 <0>         0.1363
     50 H16         6.2620   -2.6399    2.9355 H         1 <0>         0.3863
     51 H17         7.1955   -5.4002    4.1294 H         1 <0>         0.3868
     52 H18        -1.9405    0.8336    4.2028 H         1 <0>         0.1076
     53 H19         0.4665    0.1045    5.8681 H         1 <0>         0.0817
     54 H20         0.2202    1.5042    4.7772 H         1 <0>         0.0718
     55 H21         0.1409    1.8965    7.4435 H         1 <0>         0.0722
     56 H22        -1.0978    2.6874    6.4136 H         1 <0>         0.0691
     57 H23        -1.3374    0.0864    8.0239 H         1 <0>         0.0757
     58 H24        -2.4662    1.4772    7.9877 H         1 <0>         0.0669
     59 H25        -3.4068    0.8196    5.9559 H         1 <0>         0.0749
     60 H26        -2.8127   -0.7942    6.4394 H         1 <0>         0.0685
     61 H27         0.0639   -4.8310   -0.4700 H         1 <0>         0.4165
@<TRIPOS>BOND
     1    1    2 1
     2    1   38 1
     3    1   39 1
     4    1   40 1
     5    2    7 ar
     6    2    3 ar
     7    3    4 ar
     8    3   41 1
     9    4    5 ar
    10    4   42 1
    11    5   37 1
    12    5    6 ar
    13    6    7 ar
    14    6    8 1
    15    7   43 1
    16    8   15 1
    17    8    9 1
    18    8   35 1
    19    9   10 1
    20    9   28 1
    21    9   11 1
    22   11   12 1
    23   11   13 1
    24   11   25 1
    25   13   14 1
    26   13   15 1
    27   13   16 1
    28   15   44 1
    29   16   17 1
    30   16   45 1
    31   16   46 1
    32   17   22 ar
    33   17   18 ar
    34   18   19 ar
    35   18   47 1
    36   19   20 ar
    37   19   48 1
    38   20   21 ar
    39   20   24 1
    40   21   22 ar
    41   21   23 1
    42   22   49 1
    43   23   50 1
    44   24   51 1
    45   25   26 2
    46   25   27 am
    47   27   28 am
    48   27   30 1
    49   28   29 2
    50   30   34 1
    51   30   31 1
    52   30   52 1
    53   31   32 1
    54   31   53 1
    55   31   54 1
    56   32   33 1
    57   32   55 1
    58   32   56 1
    59   33   34 1
    60   33   57 1
    61   33   58 1
    62   34   59 1
    63   34   60 1
    64   35   36 2
    65   35   37 am
    66   37   61 1
@<TRIPOS>MOLECULE
ZINC39350924
   42    44     0     0     0
SMALL
USER_CHARGES

@<TRIPOS>ATOM
      1 C1          2.3586   -1.4810   -0.8833 C.3       1 <0>        -0.1025
      2 C2          0.9202   -1.4298   -0.4369 C.2       1 <0>         0.1191
      3 N1          0.4390   -1.8663    0.7459 N.pl3     1 <0>        -0.4578
      4 N2         -0.9425   -1.6360    0.7634 N.2       1 <0>        -0.3043
      5 C3         -1.2788   -1.0784   -0.3746 C.2       1 <0>         0.3015
      6 C4         -0.1176   -0.9327   -1.1482 C.2       1 <0>        -0.2482
      7 H1         -2.7880    0.1762   -0.4266 H         1 <0>         0.3885
      8 C5         -0.0405   -0.3322   -2.5282 C.3       1 <0>         0.1056
      9 H2          0.2346    0.7198   -2.4518 H         1 <0>         0.1024
     10 C6          0.9977   -1.0654   -3.3379 C.ar      1 <0>        -0.0417
     11 C7          2.0235   -0.3626   -3.9429 C.ar      1 <0>        -0.1745
     12 C8          2.9791   -1.0350   -4.6873 C.ar      1 <0>         0.1156
     13 C9          2.9040   -2.4179   -4.8242 C.ar      1 <0>         0.1091
     14 C10         1.8736   -3.1164   -4.2154 C.ar      1 <0>        -0.0943
     15 C11         0.9257   -2.4393   -3.4692 C.ar      1 <0>        -0.1000
     16 I1          1.7554   -5.1981   -4.4190 I         1 <0>        -0.0117
     17 O1          3.8395   -3.0823   -5.5543 O.3       1 <0>        -0.4726
     18 O2          3.9882   -0.3450   -5.2832 O.3       1 <0>        -0.3011
     19 C12         4.0017    1.0722   -5.1000 C.3       1 <0>         0.0222
     20 C13        -1.3820   -0.4528   -3.2042 C.2       1 <0>        -0.0801
     21 C14        -2.2182    0.5274   -3.5531 C.2       1 <0>        -0.0366
     22 N3         -3.3276    0.0259   -4.1397 N.2       1 <0>        -0.1297
     23 N4         -3.3460   -1.2038   -4.2332 N.2       1 <0>        -0.1760
     24 C15        -2.0935   -1.7171   -3.6524 C.3       1 <0>         0.1647
     25 H3         -1.5057   -2.2445   -4.4037 H         1 <0>         0.1206
     26 O3         -2.3676   -2.5657   -2.5359 O.3       1 <0>        -0.4981
     27 C16        -1.9601    1.9944   -3.3241 C.3       1 <0>        -0.0880
     28 O4         -2.5338   -0.7028   -0.7396 O.3       1 <0>        -0.4405
     29 H4          2.5456   -2.4227   -1.3993 H         1 <0>         0.0829
     30 H5          2.5590   -0.6501   -1.5597 H         1 <0>         0.0886
     31 H6          3.0118   -1.4073   -0.0138 H         1 <0>         0.0753
     32 H7          2.0795    0.7106   -3.8355 H         1 <0>         0.1422
     33 H8          0.1255   -2.9851   -2.9915 H         1 <0>         0.1400
     34 H9          4.6056   -3.3731   -5.0408 H         1 <0>         0.3907
     35 H10         3.0807    1.4987   -5.4974 H         1 <0>         0.0588
     36 H11         4.0787    1.3004   -4.0370 H         1 <0>         0.0585
     37 H12         4.8560    1.4984   -5.6260 H         1 <0>         0.1058
     38 H13        -2.7514   -3.4201   -2.7761 H         1 <0>         0.3845
     39 H14        -1.4408    2.4110   -4.1872 H         1 <0>         0.0789
     40 H15        -2.9088    2.5129   -3.1857 H         1 <0>         0.0833
     41 H16        -1.3439    2.1202   -2.4338 H         1 <0>         0.0748
     42 H17         0.9588   -2.2692    1.4590 H         1 <0>         0.4442
@<TRIPOS>BOND
     1    1    2 1
     2    1   29 1
     3    1   30 1
     4    1   31 1
     5    2    3 1
     6    2    6 2
     7    3    4 1
     8    3   42 1
     9    4    5 2
    10    5    6 1
    11    5   28 1
    12    6    8 1
    13    7   28 1
    14    8    9 1
    15    8   10 1
    16    8   20 1
    17   10   15 ar
    18   10   11 ar
    19   11   12 ar
    20   11   32 1
    21   12   13 ar
    22   12   18 1
    23   13   14 ar
    24   13   17 1
    25   14   15 ar
    26   14   16 1
    27   15   33 1
    28   17   34 1
    29   18   19 1
    30   19   35 1
    31   19   36 1
    32   19   37 1
    33   20   24 1
    34   20   21 2
    35   21   22 1
    36   21   27 1
    37   22   23 2
    38   23   24 1
    39   24   25 1
    40   24   26 1
    41   26   38 1
    42   27   39 1
    43   27   40 1
    44   27   41 1
@<TRIPOS>MOLECULE
ZINC13012589
   43    45     0     0     0
SMALL
USER_CHARGES
1-[(S)-(4-fluorophenyl)-(2-thienyl)methyl]-3-(4-sulfamoylphenyl)urea
@<TRIPOS>ATOM
      1 C1          0.5375   -4.0135    3.1526 C.2       1 <0>        -0.1556
      2 C2          0.3736   -3.7140    1.8132 C.2       1 <0>        -0.1352
      3 C3          1.0722   -2.6820    1.2801 C.2       1 <0>        -0.1586
      4 S1          1.9884   -2.0877    2.6924 S.3       1 <0>         0.0410
      5 C4          1.3839   -3.2595    3.8959 C.2       1 <0>        -0.1685
      6 C5          1.0707   -2.1659   -0.1358 C.3       1 <0>         0.2979
      7 H1          0.1688   -2.5052   -0.6453 H         1 <0>         0.1234
      8 C6          2.2840   -2.6874   -0.8617 C.ar      1 <0>        -0.1079
      9 C7          3.5115   -2.0771   -0.6825 C.ar      1 <0>        -0.0785
     10 C8          4.6259   -2.5580   -1.3434 C.ar      1 <0>        -0.1476
     11 C9          4.5105   -3.6442   -2.1943 C.ar      1 <0>         0.1085
     12 C10         3.2795   -4.2511   -2.3773 C.ar      1 <0>        -0.1476
     13 C11         2.1677   -3.7723   -1.7107 C.ar      1 <0>        -0.0673
     14 F1          5.5980   -4.1112   -2.8457 F         1 <0>        -0.1351
     15 N1          1.1021   -0.7013   -0.1218 N.am      1 <0>        -0.7326
     16 C12        -0.0450   -0.0038   -0.0034 C.2       1 <0>         0.7101
     17 O1         -1.1060   -0.5901    0.0917 O.2       1 <0>        -0.5557
     18 N2         -0.0162    1.3436    0.0094 N.am      1 <0>        -0.6860
     19 C13        -1.2128    2.0689    0.0290 C.ar      1 <0>         0.2260
     20 C14        -1.3034    3.2800   -0.6443 C.ar      1 <0>        -0.1691
     21 C15        -2.4873    3.9912   -0.6271 C.ar      1 <0>         0.0031
     22 C16        -3.5784    3.5034    0.0684 C.ar      1 <0>        -0.6941
     23 C17        -3.4898    2.3003    0.7442 C.ar      1 <0>         0.0023
     24 C18        -2.3104    1.5818    0.7264 C.ar      1 <0>        -0.1426
     25 S2         -5.0851    4.4167    0.0930 S.o2      1 <0>         2.7028
     26 O2         -5.0801    5.2397   -1.0654 O.2       1 <0>        -0.9643
     27 O3         -6.1221    3.4823    0.3592 O.2       1 <0>        -0.9630
     28 N3         -5.0192    5.4350    1.3973 N.pl3     1 <0>        -1.2504
     29 H2         -0.0042   -4.8330    3.6013 H         1 <0>         0.1362
     30 H3         -0.2989   -4.2954    1.1999 H         1 <0>         0.1349
     31 H4          1.6288   -3.3453    4.9443 H         1 <0>         0.1865
     32 H5          3.6003   -1.2267   -0.0227 H         1 <0>         0.1295
     33 H6          5.5856   -2.0840   -1.1995 H         1 <0>         0.1405
     34 H7          3.1883   -5.0982   -3.0410 H         1 <0>         0.1418
     35 H8          1.2074   -4.2455   -1.8533 H         1 <0>         0.1391
     36 H9          1.9485   -0.2336   -0.1977 H         1 <0>         0.4009
     37 H10         0.8339    1.8106    0.0011 H         1 <0>         0.4122
     38 H11        -0.4502    3.6636   -1.1840 H         1 <0>         0.1380
     39 H12        -2.5596    4.9312   -1.1539 H         1 <0>         0.1479
     40 H13        -4.3439    1.9218    1.2862 H         1 <0>         0.1469
     41 H14        -2.2419    0.6420    1.2542 H         1 <0>         0.1530
     42 H15        -4.2376    5.4373    1.9717 H         1 <0>         0.4165
     43 H16        -5.7621    6.0291    1.5868 H         1 <0>         0.4210
@<TRIPOS>BOND
     1    1    5 2
     2    1    2 1
     3    1   29 1
     4    2    3 2
     5    2   30 1
     6    3    4 1
     7    3    6 1
     8    4    5 1
     9    5   31 1
    10    6    7 1
    11    6    8 1
    12    6   15 1
    13    8   13 ar
    14    8    9 ar
    15    9   10 ar
    16    9   32 1
    17   10   11 ar
    18   10   33 1
    19   11   12 ar
    20   11   14 1
    21   12   13 ar
    22   12   34 1
    23   13   35 1
    24   15   16 am
    25   15   36 1
    26   16   17 2
    27   16   18 am
    28   18   19 1
    29   18   37 1
    30   19   24 ar
    31   19   20 ar
    32   20   21 ar
    33   20   38 1
    34   21   22 ar
    35   21   39 1
    36   22   23 ar
    37   22   25 1
    38   23   24 ar
    39   23   40 1
    40   24   41 1
    41   25   26 2
    42   25   27 2
    43   25   28 1
    44   28   42 1
    45   28   43 1
@<TRIPOS>MOLECULE
ZINC28814058
   38    40     0     0     0
SMALL
USER_CHARGES
5-bromo-2-hydroxy-N'-[2-(1H-indol-3-yl)acetyl]benzohydrazide
@<TRIPOS>ATOM
      1 C1          3.9356   11.2121    3.4319 C.ar      1 <0>        -0.1463
      2 C2          3.7080   12.4986    2.9625 C.ar      1 <0>        -0.1013
      3 C3          3.7610   12.7741    1.6139 C.ar      1 <0>        -0.1297
      4 C4          4.0452   11.7545    0.7110 C.ar      1 <0>         0.0886
      5 C5          4.2750   10.4527    1.1917 C.ar      1 <0>        -0.0918
      6 C6          4.2160   10.1958    2.5629 C.ar      1 <0>        -0.0714
      7 C7          4.5418    9.6267    0.0117 C.2       1 <0>        -0.1666
      8 C8          4.4676   10.4346   -1.0577 C.2       1 <0>         0.0841
      9 N1          4.1663   11.7086   -0.6598 N.pl3     1 <0>        -0.6047
     10 H1          4.0219   12.6219   -1.2556 H         1 <0>         0.4431
     11 C9          4.8481    8.1512    0.0010 C.3       1 <0>        -0.0510
     12 C10         3.5590    7.3705    0.0086 C.2       1 <0>         0.5136
     13 O1          2.4963    7.9548    0.0215 O.2       1 <0>        -0.5334
     14 N2          3.5872    6.0231    0.0011 N.am      1 <0>        -0.5355
     15 N3          2.3888    5.2974    0.0082 N.am      1 <0>        -0.5347
     16 C11         2.4169    3.9499    0.0007 C.2       1 <0>         0.5664
     17 O2          3.4824    3.3641   -0.0122 O.2       1 <0>        -0.5229
     18 C12         1.1550    3.1857    0.0081 C.ar      1 <0>        -0.1719
     19 C13        -0.0714    3.8547    0.0234 C.ar      1 <0>        -0.0153
     20 C14        -1.2470    3.1346    0.0308 C.ar      1 <0>        -0.1448
     21 C15        -1.2179    1.7487    0.0173 C.ar      1 <0>        -0.0192
     22 C16        -0.0126    1.0758    0.0080 C.ar      1 <0>        -0.2173
     23 C17         1.1797    1.7846    0.0004 C.ar      1 <0>         0.2371
     24 O3          2.3647    1.1242   -0.0149 O.3       1 <0>        -0.4681
     25 Br1        -2.9064    4.0413    0.0515 Br        1 <0>        -0.0391
     26 H2          3.8900   11.0129    4.4924 H         1 <0>         0.1205
     27 H3          3.4869   13.2914    3.6618 H         1 <0>         0.1237
     28 H4          3.5821   13.7782    1.2586 H         1 <0>         0.1189
     29 H5          4.3917    9.1973    2.9353 H         1 <0>         0.1158
     30 H6          4.6208   10.1245   -2.0808 H         1 <0>         0.1672
     31 H7          5.4221    7.9025   -0.9038 H         1 <0>         0.1060
     32 H8          5.4386    7.8928    0.8924 H         1 <0>         0.1060
     33 H9          4.5510    5.4931   -0.0106 H         1 <0>         0.4568
     34 H10         1.4250    5.8274    0.0199 H         1 <0>         0.4517
     35 H11        -0.0984    4.9344    0.0291 H         1 <0>         0.1399
     36 H12        -2.1435    1.1922    0.0187 H         1 <0>         0.1419
     37 H13         0.0021   -0.0041    0.0020 H         1 <0>         0.1463
     38 H14         2.3814    0.0243   -0.0209 H         1 <0>         0.4376
@<TRIPOS>BOND
     1    1    6 ar
     2    1    2 ar
     3    1   26 1
     4    2    3 ar
     5    2   27 1
     6    3    4 ar
     7    3   28 1
     8    4    9 1
     9    4    5 ar
    10    5    6 ar
    11    5    7 1
    12    6   29 1
    13    7    8 2
    14    7   11 1
    15    8    9 1
    16    8   30 1
    17    9   10 1
    18   11   12 1
    19   11   31 1
    20   11   32 1
    21   12   13 2
    22   12   14 am
    23   14   15 1
    24   14   33 1
    25   15   16 am
    26   15   34 1
    27   16   17 2
    28   16   18 1
    29   18   23 ar
    30   18   19 ar
    31   19   20 ar
    32   19   35 1
    33   20   21 ar
    34   20   25 1
    35   21   22 ar
    36   21   36 1
    37   22   23 ar
    38   22   37 1
    39   23   24 1
    40   24   38 1
@<TRIPOS>MOLECULE
ZINC39856297
   51    53     0     0     0
SMALL
USER_CHARGES

@<TRIPOS>ATOM
      1 C1         -0.0057    1.5022    0.0096 C.3       1 <0>        -0.1007
      2 C2          0.0210   -0.0045    0.0016 C.2       1 <0>        -0.0190
      3 C3          0.0387   -0.8387   -1.1227 C.2       1 <0>        -0.1583
      4 C4          0.0588   -2.1376   -0.6727 C.2       1 <0>         0.0809
      5 O1          0.0572   -2.1120    0.6581 O.3       1 <0>        -0.1448
      6 C5          0.0388   -0.8308    1.0908 C.2       1 <0>        -0.1105
      7 C6          0.0352   -0.4000    2.4931 C.2       1 <0>         0.6160
      8 O2          0.0148    0.7860    2.7653 O.2       1 <0>        -0.4864
      9 N1          0.0543   -1.3177    3.4800 N.am      1 <0>        -0.6685
     10 C7          0.1674   -0.9092    4.8125 C.ar      1 <0>         0.2021
     11 C8          0.7600    0.3093    5.1191 C.ar      1 <0>        -0.1342
     12 C9          0.8702    0.7097    6.4360 C.ar      1 <0>        -0.0622
     13 C10         0.3914   -0.1008    7.4492 C.ar      1 <0>        -0.1373
     14 C11        -0.1986   -1.3143    7.1475 C.ar      1 <0>        -0.0501
     15 C12        -0.3175   -1.7180    5.8319 C.ar      1 <0>        -0.2187
     16 C13        -0.9671   -3.0376    5.5035 C.3       1 <0>         0.5080
     17 F1         -1.3714   -3.6655    6.6865 F         1 <0>        -0.1708
     18 F2         -2.0820   -2.8182    4.6875 F         1 <0>        -0.1740
     19 F3         -0.0509   -3.8540    4.8318 F         1 <0>        -0.1787
     20 C14         0.0765   -3.3266   -1.5995 C.3       1 <0>        -0.0396
     21 C15        -0.4399   -2.9049   -2.9778 C.3       1 <0>        -0.0502
     22 C16         0.3298   -1.6843   -3.4931 C.3       1 <0>        -0.1104
     23 C17         0.0398   -0.5125   -2.5665 C.2       1 <0>         0.1851
     24 N2         -0.1892    0.6848   -3.0095 N.2       1 <0>        -0.2462
     25 N3         -0.1756    0.9363   -4.3877 N.am      1 <0>        -0.5861
     26 C18        -0.4137    2.1804   -4.8481 C.2       1 <0>         0.7352
     27 O3         -0.4018    2.3987   -6.0443 O.2       1 <0>        -0.5843
     28 N4         -0.6648    3.1826   -3.9826 N.am      1 <0>        -0.8490
     29 C19        -0.2615   -4.0648   -3.9595 C.3       1 <0>        -0.1443
     30 C20        -1.9262   -2.5570   -2.8745 C.3       1 <0>        -0.1536
     31 H1          1.0153    1.8837    0.0090 H         1 <0>         0.0805
     32 H2         -0.5282    1.8611   -0.8771 H         1 <0>         0.0812
     33 H3         -0.5236    1.8517    0.9028 H         1 <0>         0.0890
     34 H4         -0.0103   -2.2616    3.2659 H         1 <0>         0.4170
     35 H5          1.1345    0.9425    4.3284 H         1 <0>         0.1582
     36 H6          1.3311    1.6567    6.6750 H         1 <0>         0.1390
     37 H7          0.4788    0.2148    8.4784 H         1 <0>         0.1383
     38 H8         -0.5712   -1.9450    7.9411 H         1 <0>         0.1438
     39 H9          1.0962   -3.7003   -1.6921 H         1 <0>         0.1065
     40 H10        -0.5633   -4.1115   -1.1961 H         1 <0>         0.1026
     41 H11         1.3989   -1.8971   -3.4933 H         1 <0>         0.1007
     42 H12         0.0022   -1.4431   -4.5043 H         1 <0>         0.0841
     43 H13         0.0051    0.2150   -5.0106 H         1 <0>         0.4016
     44 H14        -0.6742    3.0085   -3.0284 H         1 <0>         0.4076
     45 H15        -0.8361    4.0780   -4.3139 H         1 <0>         0.4158
     46 H16        -0.8246   -4.9290   -3.6071 H         1 <0>         0.0668
     47 H17        -0.6281   -3.7685   -4.9424 H         1 <0>         0.0660
     48 H18         0.7951   -4.3231   -4.0286 H         1 <0>         0.0639
     49 H19        -2.0593   -1.7376   -2.1681 H         1 <0>         0.0608
     50 H20        -2.2978   -2.2561   -3.8541 H         1 <0>         0.0617
     51 H21        -2.4804   -3.4293   -2.5279 H         1 <0>         0.0656
@<TRIPOS>BOND
     1    1    2 1
     2    1   31 1
     3    1   32 1
     4    1   33 1
     5    2    6 2
     6    2    3 1
     7    3   23 1
     8    3    4 2
     9    4    5 1
    10    4   20 1
    11    5    6 1
    12    6    7 1
    13    7    8 2
    14    7    9 am
    15    9   10 1
    16    9   34 1
    17   10   15 ar
    18   10   11 ar
    19   11   12 ar
    20   11   35 1
    21   12   13 ar
    22   12   36 1
    23   13   14 ar
    24   13   37 1
    25   14   15 ar
    26   14   38 1
    27   15   16 1
    28   16   17 1
    29   16   18 1
    30   16   19 1
    31   20   21 1
    32   20   39 1
    33   20   40 1
    34   21   22 1
    35   21   29 1
    36   21   30 1
    37   22   23 1
    38   22   41 1
    39   22   42 1
    40   23   24 2
    41   24   25 1
    42   25   26 am
    43   25   43 1
    44   26   27 2
    45   26   28 am
    46   28   44 1
    47   28   45 1
    48   29   46 1
    49   29   47 1
    50   29   48 1
    51   30   49 1
    52   30   50 1
    53   30   51 1
@<TRIPOS>MOLECULE
ZINC45890417
   45    47     0     0     0
SMALL
USER_CHARGES

@<TRIPOS>ATOM
      1 C1          1.2647    1.0754   -0.2636 C.3       1 <0>        -0.1114
      2 C2          1.1019   -0.4120   -0.0845 C.ar      1 <0>        -0.0643
      3 C3          1.4419   -1.2521   -1.1122 C.ar      1 <0>        -0.0816
      4 C4          1.3024   -2.6525   -0.9795 C.ar      1 <0>         0.1383
      5 C5          0.7998   -3.1178    0.2570 C.ar      1 <0>        -0.1617
      6 C6          0.4598   -2.2746    1.2840 C.ar      1 <0>         0.0044
      7 C7          0.6145   -0.9034    1.1238 C.ar      1 <0>         0.1258
      8 N1          0.2790   -0.0255    2.1630 N.am      1 <0>        -0.6641
      9 C8          0.8133   -0.1965    3.3885 C.2       1 <0>         0.5144
     10 O1          1.5044   -1.1663    3.6189 O.2       1 <0>        -0.4833
     11 C9          0.5521    0.8173    4.4725 C.3       1 <0>         0.0669
     12 H1         -0.5230    0.9466    4.5976 H         1 <0>         0.1035
     13 C10         1.1847    2.1548    4.0831 C.3       1 <0>        -0.1784
     14 O2          1.1228    0.3598    5.7001 O.3       1 <0>        -0.2679
     15 C11         0.5655    0.8230    6.8503 C.ar      1 <0>         0.1448
     16 C12        -0.4378    1.7794    6.7998 C.ar      1 <0>        -0.1907
     17 C13        -1.0030    2.2491    7.9696 C.ar      1 <0>        -0.0623
     18 C14        -0.5692    1.7662    9.1917 C.ar      1 <0>        -0.0619
     19 C15         0.4313    0.8122    9.2451 C.ar      1 <0>        -0.0625
     20 C16         0.9957    0.3354    8.0766 C.ar      1 <0>        -0.0565
     21 Cl1         2.2462   -0.8669    8.1432 Cl        1 <0>        -0.0352
     22 Cl2        -1.2812    2.3588   10.6600 Cl        1 <0>        -0.0545
     23 C17        -0.0717   -2.8321    2.5793 C.3       1 <0>        -0.1085
     24 S1          0.7797   -4.8786    0.0195 S.3       1 <0>         0.0046
     25 C18         1.4181   -4.8880   -1.6497 C.2       1 <0>         0.4149
     26 N2          1.5910   -3.6090   -1.8910 N.2       1 <0>        -0.5698
     27 N3          1.6666   -5.9662   -2.4755 N.pl3     1 <0>        -0.5204
     28 N4          2.1606   -5.7639   -3.7329 N.3       1 <0>        -0.5919
     29 H2          2.2203    1.3895    0.1562 H         1 <0>         0.0752
     30 H3          1.2368    1.3187   -1.3257 H         1 <0>         0.0737
     31 H4          0.4546    1.5939    0.2493 H         1 <0>         0.0655
     32 H5          1.8209   -0.8391   -2.0353 H         1 <0>         0.1361
     33 H6         -0.3377    0.7053    2.0004 H         1 <0>         0.4104
     34 H7          0.9958    2.8881    4.8671 H         1 <0>         0.0800
     35 H8          2.2598    2.0255    3.9580 H         1 <0>         0.0802
     36 H9          0.7493    2.5038    3.1467 H         1 <0>         0.0832
     37 H10        -0.7766    2.1571    5.8464 H         1 <0>         0.1485
     38 H11        -1.7840    2.9940    7.9303 H         1 <0>         0.1450
     39 H12         0.7687    0.4369   10.1999 H         1 <0>         0.1522
     40 H13         0.7618   -3.1189    3.2206 H         1 <0>         0.0940
     41 H14        -0.6726   -2.0741    3.0817 H         1 <0>         0.0615
     42 H15        -0.6886   -3.7066    2.3725 H         1 <0>         0.0616
     43 H16         1.4905   -6.8674   -2.1628 H         1 <0>         0.4259
     44 H17         3.0203   -5.2366   -3.7031 H         1 <0>         0.3511
     45 H18         2.2905   -6.6403   -4.2157 H         1 <0>         0.3648
@<TRIPOS>BOND
     1    1    2 1
     2    1   29 1
     3    1   30 1
     4    1   31 1
     5    2    7 ar
     6    2    3 ar
     7    3    4 ar
     8    3   32 1
     9    4   26 1
    10    4    5 ar
    11    5    6 ar
    12    5   24 1
    13    6    7 ar
    14    6   23 1
    15    7    8 1
    16    8    9 am
    17    8   33 1
    18    9   10 2
    19    9   11 1
    20   11   12 1
    21   11   13 1
    22   11   14 1
    23   13   34 1
    24   13   35 1
    25   13   36 1
    26   14   15 1
    27   15   20 ar
    28   15   16 ar
    29   16   17 ar
    30   16   37 1
    31   17   18 ar
    32   17   38 1
    33   18   19 ar
    34   18   22 1
    35   19   20 ar
    36   19   39 1
    37   20   21 1
    38   23   40 1
    39   23   41 1
    40   23   42 1
    41   24   25 1
    42   25   26 2
    43   25   27 1
    44   27   28 1
    45   27   43 1
    46   28   44 1
    47   28   45 1
@<TRIPOS>MOLECULE
ZINC67423895
   49    51     0     0     0
SMALL
USER_CHARGES

@<TRIPOS>ATOM
      1 C1         -0.0636    1.5020    0.0159 C.3       1 <0>        -0.1143
      2 C2         -0.0309   -0.0047    0.0059 C.ar      1 <0>        -0.0909
      3 C3         -0.6216   -0.7006   -1.0330 C.ar      1 <0>        -0.0927
      4 C4         -0.5941   -2.0815   -1.0454 C.ar      1 <0>        -0.1158
      5 C5          0.0280   -2.7716   -0.0136 C.ar      1 <0>         0.1529
      6 C6          0.6212   -2.0699    1.0288 C.ar      1 <0>        -0.0652
      7 C7          0.5946   -0.6878    1.0324 C.ar      1 <0>        -0.0904
      8 Cl1         1.4005   -2.9276    2.3214 Cl        1 <0>        -0.0656
      9 N1          0.0572   -4.1710   -0.0232 N.am      1 <0>        -0.6688
     10 C8         -0.0419   -4.8391   -1.1895 C.2       1 <0>         0.5209
     11 O1         -0.0553   -4.2299   -2.2382 O.2       1 <0>        -0.5069
     12 C9         -0.1360   -6.3432   -1.1907 C.3       1 <0>        -0.1535
     13 C10        -0.2382   -6.8467   -2.6318 C.3       1 <0>         0.1540
     14 N2         -0.3297   -8.3088   -2.6330 N.am      1 <0>        -0.7485
     15 C11        -0.4288   -8.9769   -3.7993 C.2       1 <0>         0.7035
     16 O2         -0.4422   -8.3661   -4.8505 O.2       1 <0>        -0.5847
     17 N3         -0.5129  -10.3221   -3.8003 N.am      1 <0>        -0.7278
     18 C12        -0.6206  -11.0483   -5.0681 C.3       1 <0>         0.2135
     19 H1         -1.1976  -10.4678   -5.7879 H         1 <0>         0.1135
     20 C13         0.7566  -11.3493   -5.6195 C.ar      1 <0>        -0.1088
     21 C14         1.8817  -10.5470   -5.7112 C.ar      1 <0>        -0.0830
     22 C15         3.0469  -11.0440   -6.2612 C.ar      1 <0>        -0.1230
     23 C16         3.0912  -12.3466   -6.7224 C.ar      1 <0>        -0.1134
     24 C17         1.9701  -13.1481   -6.6323 C.ar      1 <0>        -0.1101
     25 C18         0.8008  -12.6515   -6.0807 C.ar      1 <0>        -0.0902
     26 C19        -0.5436  -13.3147   -5.8708 C.3       1 <0>        -0.1132
     27 C20        -1.2776  -12.4264   -4.8417 C.3       1 <0>         0.0997
     28 H2         -2.3459  -12.3861   -5.0546 H         1 <0>         0.0839
     29 O3         -1.0405  -12.8897   -3.5109 O.3       1 <0>        -0.5584
     30 H3          0.8126    1.8879   -0.5052 H         1 <0>         0.0739
     31 H4         -0.9669    1.8491   -0.4857 H         1 <0>         0.0705
     32 H5         -0.0601    1.8586    1.0459 H         1 <0>         0.0689
     33 H6         -1.1055   -0.1637   -1.8354 H         1 <0>         0.1338
     34 H7         -1.0563   -2.6240   -1.8569 H         1 <0>         0.1554
     35 H8          1.0591   -0.1413    1.8398 H         1 <0>         0.1375
     36 H9          0.1487   -4.6600    0.8095 H         1 <0>         0.4140
     37 H10         0.7536   -6.7633   -0.7213 H         1 <0>         0.1066
     38 H11        -1.0208   -6.6523   -0.6342 H         1 <0>         0.1078
     39 H12        -1.1278   -6.4266   -3.1012 H         1 <0>         0.0779
     40 H13         0.6466   -6.5376   -3.1884 H         1 <0>         0.0775
     41 H14        -0.3190   -8.7961   -1.7943 H         1 <0>         0.3964
     42 H15        -0.5022  -10.8093   -2.9617 H         1 <0>         0.4072
     43 H16         1.8479   -9.5293   -5.3511 H         1 <0>         0.1198
     44 H17         3.9225  -10.4158   -6.3312 H         1 <0>         0.1238
     45 H18         4.0015  -12.7369   -7.1531 H         1 <0>         0.1246
     46 H19         2.0054  -14.1654   -6.9932 H         1 <0>         0.1204
     47 H20        -1.1005  -13.3454   -6.8072 H         1 <0>         0.0934
     48 H21        -0.4109  -14.3218   -5.4756 H         1 <0>         0.0863
     49 H22        -1.4333  -13.7523   -3.3188 H         1 <0>         0.3872
@<TRIPOS>BOND
     1    1    2 1
     2    1   30 1
     3    1   31 1
     4    1   32 1
     5    2    7 ar
     6    2    3 ar
     7    3    4 ar
     8    3   33 1
     9    4    5 ar
    10    4   34 1
    11    5    6 ar
    12    5    9 1
    13    6    7 ar
    14    6    8 1
    15    7   35 1
    16    9   10 am
    17    9   36 1
    18   10   11 2
    19   10   12 1
    20   12   13 1
    21   12   37 1
    22   12   38 1
    23   13   14 1
    24   13   39 1
    25   13   40 1
    26   14   15 am
    27   14   41 1
    28   15   16 2
    29   15   17 am
    30   17   18 1
    31   17   42 1
    32   18   19 1
    33   18   27 1
    34   18   20 1
    35   20   25 ar
    36   20   21 ar
    37   21   22 ar
    38   21   43 1
    39   22   23 ar
    40   22   44 1
    41   23   24 ar
    42   23   45 1
    43   24   25 ar
    44   24   46 1
    45   25   26 1
    46   26   27 1
    47   26   47 1
    48   26   48 1
    49   27   28 1
    50   27   29 1
    51   29   49 1
@<TRIPOS>MOLECULE
ZINC36743205
   31    31     0     0     0
SMALL
USER_CHARGES

@<TRIPOS>ATOM
      1 C1          0.3016    1.3757    3.4821 C.3       1 <0>        -0.1580
      2 C2          0.3369    0.0036    2.8060 C.3       1 <0>        -0.1155
      3 C3         -1.0618   -0.3503    2.2970 C.3       1 <0>        -0.1109
      4 C4         -1.0265   -1.7224    1.6209 C.3       1 <0>        -0.6223
      5 S1         -2.6849   -2.1421    1.0175 S.o2      1 <0>         2.5931
      6 O1         -3.5733   -2.3208    2.1120 O.2       1 <0>        -0.9393
      7 O2         -3.0372   -1.2998   -0.0714 O.2       1 <0>        -0.9490
      8 N1         -2.5264   -3.6499    0.3514 N.pl3     1 <0>        -1.0552
      9 C5         -2.2235   -4.7480    1.1674 C.ar      1 <0>         0.0767
     10 C6         -3.1351   -5.1742    2.1330 C.ar      1 <0>         0.2439
     11 C7         -2.8298   -6.2613    2.9375 C.ar      1 <0>        -0.1481
     12 C8         -1.6230   -6.9202    2.7816 C.ar      1 <0>        -0.0316
     13 C9         -0.7187   -6.4975    1.8245 C.ar      1 <0>        -0.1187
     14 C10        -1.0187   -5.4174    1.0131 C.ar      1 <0>        -0.0405
     15 Br1         0.2178   -4.8487   -0.2997 Br        1 <0>        -0.0263
     16 Br2        -1.2090   -8.4023    3.8807 Br        1 <0>        -0.0291
     17 N2         -4.3553   -4.5057    2.2898 N.pl3     1 <0>        -0.8329
     18 H1          1.2981    1.6279    3.8447 H         1 <0>         0.0592
     19 H2         -0.0242    2.1269    2.7626 H         1 <0>         0.0570
     20 H3         -0.3944    1.3497    4.3206 H         1 <0>         0.0569
     21 H4          1.0329    0.0296    1.9675 H         1 <0>         0.0672
     22 H5          0.6627   -0.7476    3.5254 H         1 <0>         0.0671
     23 H6         -1.7578   -0.3763    3.1355 H         1 <0>         0.0798
     24 H7         -1.3876    0.4009    1.5776 H         1 <0>         0.0784
     25 H8         -0.3305   -1.6965    0.7824 H         1 <0>         0.1358
     26 H9         -0.7007   -2.4737    2.3404 H         1 <0>         0.1336
     27 H10        -2.6434   -3.7730   -0.6036 H         1 <0>         0.4268
     28 H11        -3.5337   -6.5937    3.6860 H         1 <0>         0.1460
     29 H12         0.2223   -7.0145    1.7070 H         1 <0>         0.1464
     30 H13        -4.6837   -3.9242    1.5863 H         1 <0>         0.4038
     31 H14        -4.8723   -4.6241    3.1020 H         1 <0>         0.4060
@<TRIPOS>BOND
     1    1    2 1
     2    1   18 1
     3    1   19 1
     4    1   20 1
     5    2    3 1
     6    2   21 1
     7    2   22 1
     8    3    4 1
     9    3   23 1
    10    3   24 1
    11    4    5 1
    12    4   25 1
    13    4   26 1
    14    5    6 2
    15    5    7 2
    16    5    8 1
    17    8    9 1
    18    8   27 1
    19    9   14 ar
    20    9   10 ar
    21   10   11 ar
    22   10   17 1
    23   11   12 ar
    24   11   28 1
    25   12   13 ar
    26   12   16 1
    27   13   14 ar
    28   13   29 1
    29   14   15 1
    30   17   30 1
    31   17   31 1
@<TRIPOS>MOLECULE
ZINC37285261
   35    36     0     0     0
SMALL
USER_CHARGES

@<TRIPOS>ATOM
      1 C1         -0.0843    1.5008    0.0139 C.3       1 <0>        -0.1121
      2 C2         -0.0522   -0.0058    0.0049 C.ar      1 <0>        -0.1149
      3 C3         -0.0436   -0.6888   -1.1974 C.ar      1 <0>        -0.0641
      4 C4         -0.0146   -2.0699   -1.2087 C.ar      1 <0>        -0.2005
      5 C5          0.0063   -2.7721   -0.0125 C.ar      1 <0>         0.1475
      6 C6         -0.0020   -2.0846    1.1931 C.ar      1 <0>        -0.1175
      7 C7         -0.0257   -0.7025    1.1987 C.ar      1 <0>        -0.0530
      8 Br1         0.0258   -3.0375    2.8263 Br        1 <0>        -0.0294
      9 O1          0.0343   -4.1310   -0.0212 O.3       1 <0>        -0.2757
     10 C8          0.0408   -4.7716   -1.2985 C.3       1 <0>         0.0407
     11 C9          0.0727   -6.2665   -1.1106 C.2       1 <0>         0.5182
     12 O2          0.0884   -6.7370    0.0072 O.2       1 <0>        -0.4839
     13 N1          0.0838   -7.0806   -2.1846 N.am      1 <0>        -0.6675
     14 C10         0.2082   -8.4642   -2.0129 C.ar      1 <0>         0.2046
     15 C11        -0.3692   -9.0821   -0.9131 C.ar      1 <0>        -0.1911
     16 C12        -0.2437  -10.4540   -0.7461 C.ar      1 <0>         0.2414
     17 C13         0.4595  -11.2049   -1.6802 C.ar      1 <0>        -0.2002
     18 C14         1.0340  -10.5871   -2.7743 C.ar      1 <0>        -0.0403
     19 C15         0.9056   -9.2213   -2.9468 C.ar      1 <0>        -0.1208
     20 Cl1         1.6225   -8.4503   -4.3272 Cl        1 <0>        -0.0736
     21 N2         -0.8236  -11.0797    0.3606 N.pl3     1 <0>        -0.8692
     22 H1          0.9353    1.8860    0.0060 H         1 <0>         0.0728
     23 H2         -0.6145    1.8582   -0.8689 H         1 <0>         0.0693
     24 H3         -0.5970    1.8480    0.9109 H         1 <0>         0.0691
     25 H4         -0.0598   -0.1420   -2.1285 H         1 <0>         0.1338
     26 H5         -0.0086   -2.6026   -2.1482 H         1 <0>         0.1370
     27 H6         -0.0281   -0.1666    2.1364 H         1 <0>         0.1405
     28 H7         -0.8581   -4.4937   -1.8489 H         1 <0>         0.1005
     29 H8          0.9215   -4.4569   -1.8584 H         1 <0>         0.1015
     30 H9          0.0055   -6.7077   -3.0767 H         1 <0>         0.4151
     31 H10        -0.9151   -8.4966   -0.1881 H         1 <0>         0.1475
     32 H11         0.5575  -12.2726   -1.5506 H         1 <0>         0.1318
     33 H12         1.5804  -11.1728   -3.4987 H         1 <0>         0.1381
     34 H13        -1.3141  -10.5551    1.0125 H         1 <0>         0.4025
     35 H14        -0.7356  -12.0387    0.4768 H         1 <0>         0.4020
@<TRIPOS>BOND
     1    1    2 1
     2    1   22 1
     3    1   23 1
     4    1   24 1
     5    2    7 ar
     6    2    3 ar
     7    3    4 ar
     8    3   25 1
     9    4    5 ar
    10    4   26 1
    11    5    6 ar
    12    5    9 1
    13    6    7 ar
    14    6    8 1
    15    7   27 1
    16    9   10 1
    17   10   11 1
    18   10   28 1
    19   10   29 1
    20   11   12 2
    21   11   13 am
    22   13   14 1
    23   13   30 1
    24   14   19 ar
    25   14   15 ar
    26   15   16 ar
    27   15   31 1
    28   16   17 ar
    29   16   21 1
    30   17   18 ar
    31   17   32 1
    32   18   19 ar
    33   18   33 1
    34   19   20 1
    35   21   34 1
    36   21   35 1
@<TRIPOS>MOLECULE
ZINC40347488
   32    33     0     0     0
SMALL
USER_CHARGES

@<TRIPOS>ATOM
      1 C1          0.2794    1.9261    0.3641 C.ar      1 <0>        -0.1403
      2 C2          1.5250    2.5185    0.4513 C.ar      1 <0>        -0.0599
      3 C3          2.6671    1.7420    0.3773 C.ar      1 <0>        -0.0953
      4 C4          2.5636    0.3718    0.2159 C.ar      1 <0>        -0.0445
      5 C5          1.3190   -0.2217    0.1285 C.ar      1 <0>        -0.1294
      6 C6          0.1750    0.5551    0.2030 C.ar      1 <0>         0.1194
      7 F1         -1.0423   -0.0246    0.1181 F         1 <0>        -0.1285
      8 C7          3.8086   -0.4734    0.1349 C.3       1 <0>         0.1523
      9 N1          4.3280   -0.7084    1.4844 N.pl3     1 <0>        -1.1151
     10 S1          5.4473   -1.9007    1.7449 S.o2      1 <0>         2.6972
     11 O1          5.7712   -1.8586    3.1278 O.2       1 <0>        -0.9513
     12 O2          4.9469   -3.0721    1.1150 O.2       1 <0>        -0.9490
     13 C8          6.9078   -1.4441    0.8714 C.ar      1 <0>        -0.7455
     14 C9          7.3595   -2.2238   -0.1755 C.ar      1 <0>         0.0333
     15 C10         8.5060   -1.8655   -0.8621 C.ar      1 <0>        -0.1105
     16 C11         9.2037   -0.7257   -0.5020 C.ar      1 <0>        -0.0065
     17 C12         8.7570    0.0572    0.5440 C.ar      1 <0>        -0.1990
     18 C13         7.6027   -0.2968    1.2312 C.ar      1 <0>         0.3225
     19 N2          7.1449    0.4970    2.2862 N.pl3     1 <0>        -0.8582
     20 Cl1         9.0708   -2.8478   -2.1774 Cl        1 <0>        -0.0642
     21 Br1         4.3710    2.5534    0.4962 Br        1 <0>        -0.0313
     22 H1         -0.6124    2.5321    0.4260 H         1 <0>         0.1485
     23 H2          1.6066    3.5881    0.5770 H         1 <0>         0.1469
     24 H3          1.2383   -1.2912    0.0018 H         1 <0>         0.1516
     25 H4          3.5698   -1.4281   -0.3338 H         1 <0>         0.1015
     26 H5          4.5615    0.0447   -0.4591 H         1 <0>         0.0893
     27 H6          4.0163   -0.1655    2.2254 H         1 <0>         0.4195
     28 H7          6.8174   -3.1141   -0.4581 H         1 <0>         0.1530
     29 H8         10.0986   -0.4486   -1.0395 H         1 <0>         0.1420
     30 H9          9.3021    0.9463    0.8249 H         1 <0>         0.1402
     31 H10         6.2950    0.2982    2.7094 H         1 <0>         0.3993
     32 H11         7.6770    1.2469    2.5954 H         1 <0>         0.4120
@<TRIPOS>BOND
     1    1    6 ar
     2    1    2 ar
     3    1   22 1
     4    2    3 ar
     5    2   23 1
     6    3    4 ar
     7    3   21 1
     8    4    5 ar
     9    4    8 1
    10    5    6 ar
    11    5   24 1
    12    6    7 1
    13    8    9 1
    14    8   25 1
    15    8   26 1
    16    9   10 1
    17    9   27 1
    18   10   11 2
    19   10   12 2
    20   10   13 1
    21   13   18 ar
    22   13   14 ar
    23   14   15 ar
    24   14   28 1
    25   15   16 ar
    26   15   20 1
    27   16   17 ar
    28   16   29 1
    29   17   18 ar
    30   17   30 1
    31   18   19 1
    32   19   31 1
    33   19   32 1
@<TRIPOS>MOLECULE
ZINC50545472
   35    36     0     0     0
SMALL
USER_CHARGES

@<TRIPOS>ATOM
      1 C1         -0.0184    1.5028    0.0103 C.3       1 <0>        -0.1177
      2 C2          0.0021   -0.0041    0.0020 C.ar      1 <0>        -0.1188
      3 C3          0.0058   -0.6889   -1.1986 C.ar      1 <0>        -0.0708
      4 C4          0.0246   -2.0709   -1.2065 C.ar      1 <0>        -0.1231
      5 C5          0.0396   -2.7700   -0.0137 C.ar      1 <0>        -0.0742
      6 C6          0.0364   -2.0876    1.1878 C.ar      1 <0>        -0.1502
      7 C7          0.0229   -0.7029    1.1969 C.ar      1 <0>         0.1091
      8 F1          0.0245   -0.0345    2.3710 F         1 <0>        -0.1335
      9 C8          0.0281   -2.8164   -2.5162 C.3       1 <0>         0.1597
     10 N1          1.4103   -3.0391   -2.9476 N.pl3     1 <0>        -0.7247
     11 C9          1.6688   -3.7152   -4.1428 C.ar      1 <0>         0.2974
     12 C10         0.6165   -4.1717   -4.9260 C.ar      1 <0>        -0.2117
     13 C11         0.8754   -4.8391   -6.1070 C.ar      1 <0>         0.0440
     14 C12         2.1807   -5.0534   -6.5106 C.ar      1 <0>        -0.7306
     15 C13         3.2311   -4.6006   -5.7338 C.ar      1 <0>         0.0611
     16 C14         2.9794   -3.9274   -4.5535 C.ar      1 <0>        -0.1932
     17 Br1         4.4163   -3.3021   -3.4951 Br        1 <0>        -0.0374
     18 S1          2.5059   -5.9060   -8.0179 S.o2      1 <0>         2.7063
     19 O1          3.8103   -6.4573   -7.8994 O.2       1 <0>        -0.9645
     20 O2          1.3625   -6.7056   -8.2871 O.2       1 <0>        -0.9645
     21 N2          2.5806   -4.7675   -9.2181 N.pl3     1 <0>        -1.2511
     22 H1          1.0042    1.8801    0.0026 H         1 <0>         0.0768
     23 H2         -0.5455    1.8639   -0.8728 H         1 <0>         0.0748
     24 H3         -0.5286    1.8543    0.9071 H         1 <0>         0.0725
     25 H4         -0.0063   -0.1438   -2.1309 H         1 <0>         0.1353
     26 H5          0.0536   -3.8499   -0.0211 H         1 <0>         0.1358
     27 H6          0.0479   -2.6339    2.1193 H         1 <0>         0.1403
     28 H7         -0.4721   -3.7765   -2.3892 H         1 <0>         0.0815
     29 H8         -0.4976   -2.2297   -3.2696 H         1 <0>         0.0809
     30 H9          2.1460   -2.7173   -2.4035 H         1 <0>         0.4097
     31 H10        -0.4032   -4.0051   -4.6116 H         1 <0>         0.1422
     32 H11         0.0574   -5.1945   -6.7161 H         1 <0>         0.1494
     33 H12         4.2493   -4.7700   -6.0517 H         1 <0>         0.1516
     34 H13         2.4518   -3.8298   -9.0059 H         1 <0>         0.4165
     35 H14         2.7530   -5.0383  -10.1335 H         1 <0>         0.4209
@<TRIPOS>BOND
     1    1    2 1
     2    1   22 1
     3    1   23 1
     4    1   24 1
     5    2    7 ar
     6    2    3 ar
     7    3    4 ar
     8    3   25 1
     9    4    5 ar
    10    4    9 1
    11    5    6 ar
    12    5   26 1
    13    6    7 ar
    14    6   27 1
    15    7    8 1
    16    9   10 1
    17    9   28 1
    18    9   29 1
    19   10   11 1
    20   10   30 1
    21   11   16 ar
    22   11   12 ar
    23   12   13 ar
    24   12   31 1
    25   13   14 ar
    26   13   32 1
    27   14   15 ar
    28   14   18 1
    29   15   16 ar
    30   15   33 1
    31   16   17 1
    32   18   19 2
    33   18   20 2
    34   18   21 1
    35   21   34 1
    36   21   35 1
@<TRIPOS>MOLECULE
ZINC61882368
   35    36     0     0     0
SMALL
USER_CHARGES

@<TRIPOS>ATOM
      1 C1         -2.1347   -0.0503   -0.1772 C.3       1 <0>        -0.1609
      2 C2         -0.8143   -0.8233   -0.1752 C.3       1 <0>        -0.1222
      3 C3          0.2402   -0.0335   -0.9531 C.3       1 <0>         0.2430
      4 H1          0.2903    0.9843   -0.5664 H         1 <0>         0.1041
      5 C4          1.5836   -0.6979   -0.7946 C.2       1 <0>        -0.1636
      6 C5          2.6052   -0.3707    0.0340 C.2       1 <0>        -0.1417
      7 C6          3.7587   -1.1319    0.0089 C.2       1 <0>        -0.1559
      8 C7          3.8341   -2.1831   -0.8435 C.2       1 <0>        -0.1721
      9 S1          2.2393   -2.1248   -1.6437 S.3       1 <0>         0.0507
     10 N1         -0.1234    0.0005   -2.3719 N.pl3     1 <0>        -1.1028
     11 S2          0.2878    1.3082   -3.3009 S.o2      1 <0>         2.6831
     12 O1          1.6812    1.5160   -3.1156 O.2       1 <0>        -0.9354
     13 O2         -0.2865    1.0925   -4.5826 O.2       1 <0>        -0.9317
     14 C8         -0.5264    2.7118   -2.6140 C.ar      1 <0>        -0.5958
     15 C9          0.2170    3.7548   -2.0924 C.ar      1 <0>        -0.0664
     16 C10        -0.4184    4.8590   -1.5525 C.ar      1 <0>         0.0087
     17 C11        -1.7995    4.9227   -1.5330 C.ar      1 <0>        -0.1320
     18 C12        -2.5484    3.8771   -2.0560 C.ar      1 <0>         0.2463
     19 C13        -1.9066    2.7717   -2.6024 C.ar      1 <0>        -0.0874
     20 Br1        -2.9217    1.3483   -3.3230 Br        1 <0>        -0.0117
     21 N2         -3.9442    3.9381   -2.0375 N.pl3     1 <0>        -0.8605
     22 Cl1         0.5192    6.1654   -0.8984 Cl        1 <0>        -0.0426
     23 H2         -1.9437    0.9956    0.0628 H         1 <0>         0.0544
     24 H3         -2.5943   -0.1189   -1.1632 H         1 <0>         0.0644
     25 H4         -2.8067   -0.4771    0.5674 H         1 <0>         0.0616
     26 H5         -0.4777   -0.9649    0.8518 H         1 <0>         0.0835
     27 H6         -0.9614   -1.7951   -0.6466 H         1 <0>         0.0780
     28 H7          2.5193    0.4724    0.7035 H         1 <0>         0.1332
     29 H8          4.5876   -0.8925    0.6585 H         1 <0>         0.1344
     30 H9          4.6466   -2.8781   -0.9960 H         1 <0>         0.1856
     31 H10        -0.6049   -0.7430   -2.7671 H         1 <0>         0.4240
     32 H11         1.2959    3.7071   -2.1061 H         1 <0>         0.1608
     33 H12        -2.2951    5.7846   -1.1112 H         1 <0>         0.1506
     34 H13        -4.3909    4.7114   -1.6590 H         1 <0>         0.4086
     35 H14        -4.4664    3.2070   -2.4031 H         1 <0>         0.4078
@<TRIPOS>BOND
     1    1    2 1
     2    1   23 1
     3    1   24 1
     4    1   25 1
     5    2    3 1
     6    2   26 1
     7    2   27 1
     8    3    4 1
     9    3    5 1
    10    3   10 1
    11    5    9 1
    12    5    6 2
    13    6    7 1
    14    6   28 1
    15    7    8 2
    16    7   29 1
    17    8    9 1
    18    8   30 1
    19   10   11 1
    20   10   31 1
    21   11   12 2
    22   11   13 2
    23   11   14 1
    24   14   19 ar
    25   14   15 ar
    26   15   16 ar
    27   15   32 1
    28   16   17 ar
    29   16   22 1
    30   17   18 ar
    31   17   33 1
    32   18   19 ar
    33   18   21 1
    34   19   20 1
    35   21   34 1
    36   21   35 1
@<TRIPOS>MOLECULE
ZINC08965636
   51    54     0     0     0
SMALL
USER_CHARGES
5-[[4-amino-6-(o-tolylamino)-1,3,5-triazin-2-yl]methoxy]tetralin-1-ol
@<TRIPOS>ATOM
      1 C1         -2.3544   -4.0809   -8.9277 C.3       1 <0>        -0.1178
      2 C2         -1.5733   -5.3647   -8.8144 C.ar      1 <0>        -0.1150
      3 C3         -2.0560   -6.5213   -9.3952 C.ar      1 <0>        -0.0991
      4 C4         -1.3398   -7.6994   -9.2922 C.ar      1 <0>        -0.1337
      5 C5         -0.1382   -7.7242   -8.6078 C.ar      1 <0>        -0.1053
      6 C6          0.3528   -6.5703   -8.0297 C.ar      1 <0>        -0.1212
      7 C7         -0.3671   -5.3862   -8.1265 C.ar      1 <0>         0.1565
      8 N1          0.1244   -4.2172   -7.5373 N.pl3     1 <0>        -0.6181
      9 C8          0.9958   -4.2961   -6.4684 C.ar      1 <0>         0.6282
     10 N2          1.5554   -3.1906   -5.9816 N.ar      1 <0>        -0.6130
     11 C9          2.3887   -3.2651   -4.9589 C.ar      1 <0>         0.4360
     12 N3          2.6743   -4.4370   -4.4186 N.ar      1 <0>        -0.6147
     13 C10         2.1146   -5.5461   -4.8962 C.ar      1 <0>         0.6294
     14 N4          1.2761   -5.4752   -5.9245 N.ar      1 <0>        -0.6308
     15 N5          2.4090   -6.7686   -4.3278 N.pl3     1 <0>        -0.8002
     16 C11         3.0200   -2.0111   -4.4110 C.3       1 <0>         0.1331
     17 O1          2.1866   -1.4672   -3.3855 O.3       1 <0>        -0.3007
     18 C12         2.6144   -0.3266   -2.7831 C.ar      1 <0>         0.1322
     19 C13         3.8102    0.2515   -3.1749 C.ar      1 <0>        -0.2051
     20 C14         4.2429    1.4114   -2.5624 C.ar      1 <0>        -0.0785
     21 C15         3.4830    1.9849   -1.5634 C.ar      1 <0>        -0.1522
     22 C16         2.2842    1.4071   -1.1650 C.ar      1 <0>        -0.0772
     23 C17         1.8468    0.2538   -1.7752 C.ar      1 <0>        -0.0898
     24 C18         0.5542   -0.4223   -1.4001 C.3       1 <0>        -0.0745
     25 C19         0.0710    0.0622   -0.0346 C.3       1 <0>        -0.1171
     26 C20         0.0666    1.5954   -0.0394 C.3       1 <0>        -0.1136
     27 C21         1.5145    2.0811   -0.0593 C.3       1 <0>         0.1481
     28 H1          1.9839    1.8513    0.8973 H         1 <0>         0.0701
     29 O2          1.5344    3.4950   -0.2654 O.3       1 <0>        -0.5577
     30 H2         -2.0431   -3.5441   -9.8237 H         1 <0>         0.0727
     31 H3         -3.4187   -4.3076   -8.9912 H         1 <0>         0.0737
     32 H4         -2.1663   -3.4626   -8.0499 H         1 <0>         0.0623
     33 H5         -2.9938   -6.5052   -9.9307 H         1 <0>         0.1264
     34 H6         -1.7192   -8.6023   -9.7476 H         1 <0>         0.1229
     35 H7          0.4189   -8.6461   -8.5291 H         1 <0>         0.1241
     36 H8          1.2935   -6.5892   -7.4995 H         1 <0>         0.1480
     37 H9         -0.1466   -3.3508   -7.8792 H         1 <0>         0.4276
     38 H10         2.0038   -7.5769   -4.6789 H         1 <0>         0.4194
     39 H11         3.0212   -6.8196   -3.5771 H         1 <0>         0.4211
     40 H12         3.1330   -1.2812   -5.2126 H         1 <0>         0.0964
     41 H13         3.9992   -2.2490   -3.9955 H         1 <0>         0.0966
     42 H14         4.4020   -0.2028   -3.9559 H         1 <0>         0.1309
     43 H15         5.1738    1.8682   -2.8643 H         1 <0>         0.1284
     44 H16         3.8235    2.8923   -1.0868 H         1 <0>         0.1218
     45 H17         0.7097   -1.5006   -1.3644 H         1 <0>         0.0782
     46 H18        -0.2022   -0.1936   -2.1509 H         1 <0>         0.0769
     47 H19         0.7435   -0.3006    0.7428 H         1 <0>         0.0682
     48 H20        -0.9376   -0.3072    0.1509 H         1 <0>         0.0766
     49 H21        -0.4545    1.9583   -0.9253 H         1 <0>         0.0761
     50 H22        -0.4320    1.9640    0.8571 H         1 <0>         0.0762
     51 H23         2.4227    3.8765   -0.2898 H         1 <0>         0.3772
@<TRIPOS>BOND
     1    1    2 1
     2    1   30 1
     3    1   31 1
     4    1   32 1
     5    2    7 ar
     6    2    3 ar
     7    3    4 ar
     8    3   33 1
     9    4    5 ar
    10    4   34 1
    11    5    6 ar
    12    5   35 1
    13    6    7 ar
    14    6   36 1
    15    7    8 1
    16    8    9 1
    17    8   37 1
    18    9   14 ar
    19    9   10 ar
    20   10   11 ar
    21   11   12 ar
    22   11   16 1
    23   12   13 ar
    24   13   14 ar
    25   13   15 1
    26   15   38 1
    27   15   39 1
    28   16   17 1
    29   16   40 1
    30   16   41 1
    31   17   18 1
    32   18   23 ar
    33   18   19 ar
    34   19   20 ar
    35   19   42 1
    36   20   21 ar
    37   20   43 1
    38   21   22 ar
    39   21   44 1
    40   22   27 1
    41   22   23 ar
    42   23   24 1
    43   24   25 1
    44   24   45 1
    45   24   46 1
    46   25   26 1
    47   25   47 1
    48   25   48 1
    49   26   27 1
    50   26   49 1
    51   26   50 1
    52   27   28 1
    53   27   29 1
    54   29   51 1
@<TRIPOS>MOLECULE
ZINC26353798
   36    37     0     0     0
SMALL
USER_CHARGES
(E)-3-(5-bromo-2-fluoro-phenyl)-N-(4-ureidophenyl)prop-2-enamide
@<TRIPOS>ATOM
      1 C1         -3.1412    1.9414   -0.1876 C.ar      1 <0>        -0.1246
      2 C2         -1.9361    1.2963   -0.3812 C.ar      1 <0>        -0.1045
      3 C3         -0.7731    1.8176    0.1700 C.ar      1 <0>         0.1540
      4 C4         -0.8228    2.9848    0.9206 C.ar      1 <0>        -0.1310
      5 C5         -2.0268    3.6329    1.1100 C.ar      1 <0>        -0.1018
      6 C6         -3.1902    3.1117    0.5587 C.ar      1 <0>         0.1283
      7 N1         -4.4122    3.7657    0.7556 N.am      1 <0>        -0.6782
      8 C7         -4.4554    5.1118    0.8080 C.2       1 <0>         0.5490
      9 O1         -3.4232    5.7558    0.7685 O.2       1 <0>        -0.5267
     10 C8         -5.7427    5.7988    0.9124 C.2       1 <0>        -0.2025
     11 C9         -5.7860    7.1463    0.9648 C.2       1 <0>        -0.0218
     12 C10        -7.0802    7.8370    1.0697 C.ar      1 <0>        -0.1008
     13 C11        -8.2688    7.1007    1.1154 C.ar      1 <0>        -0.0466
     14 C12        -9.4783    7.7556    1.2143 C.ar      1 <0>        -0.1064
     15 C13        -9.5197    9.1396    1.2680 C.ar      1 <0>        -0.0496
     16 C14        -8.3505    9.8763    1.2235 C.ar      1 <0>        -0.1472
     17 C15        -7.1293    9.2356    1.1303 C.ar      1 <0>         0.1394
     18 F1         -5.9871    9.9561    1.0922 F         1 <0>        -0.1226
     19 Br1       -11.0858    6.7616    1.2761 Br        1 <0>        -0.0323
     20 N2          0.4499    1.1625   -0.0263 N.am      1 <0>        -0.6996
     21 C16         0.6987    0.5351   -1.1929 C.2       1 <0>         0.7070
     22 O2         -0.1667    0.4696   -2.0446 O.2       1 <0>        -0.5871
     23 N3          1.9066   -0.0197   -1.4155 N.am      1 <0>        -0.8874
     24 H1         -4.0457    1.5362   -0.6166 H         1 <0>         0.1282
     25 H2         -1.8979    0.3865   -0.9618 H         1 <0>         0.1430
     26 H3          0.0812    3.3876    1.3530 H         1 <0>         0.1273
     27 H4         -2.0647    4.5432    1.6901 H         1 <0>         0.1414
     28 H5         -5.3372    3.1810    0.8676 H         1 <0>         0.4354
     29 H6         -6.6754    5.2167    0.9482 H         1 <0>         0.1368
     30 H7         -4.8533    7.7284    0.9291 H         1 <0>         0.1490
     31 H8         -8.2392    6.0219    1.0730 H         1 <0>         0.1483
     32 H9        -10.4706    9.6457    1.3454 H         1 <0>         0.1478
     33 H10        -8.3914   10.9547    1.2659 H         1 <0>         0.1517
     34 H11         1.2070    1.1603    0.7717 H         1 <0>         0.4274
     35 H12         2.1096   -0.5317   -2.3677 H         1 <0>         0.4410
     36 H13         2.6895    0.0395   -0.6450 H         1 <0>         0.4154
@<TRIPOS>BOND
     1    1    6 ar
     2    1    2 ar
     3    1   24 1
     4    2    3 ar
     5    2   25 1
     6    3    4 ar
     7    3   20 1
     8    4    5 ar
     9    4   26 1
    10    5    6 ar
    11    5   27 1
    12    6    7 1
    13    7    8 am
    14    7   28 1
    15    8    9 2
    16    8   10 1
    17   10   11 2
    18   10   29 1
    19   11   12 1
    20   11   30 1
    21   12   17 ar
    22   12   13 ar
    23   13   14 ar
    24   13   31 1
    25   14   15 ar
    26   14   19 1
    27   15   16 ar
    28   15   32 1
    29   16   17 ar
    30   16   33 1
    31   17   18 1
    32   20   21 am
    33   20   34 1
    34   21   22 2
    35   21   23 am
    36   23   35 1
    37   23   36 1
@<TRIPOS>MOLECULE
ZINC43172648
   42    43     0     0     0
SMALL
USER_CHARGES

@<TRIPOS>ATOM
      1 C1         -1.2663    1.1826    0.1823 C.3       1 <0>        -0.1149
      2 C2         -0.5849   -0.1580    0.0848 C.ar      1 <0>        -0.1012
      3 C3         -0.5703   -0.8402   -1.1162 C.ar      1 <0>        -0.0930
      4 C4          0.0547   -2.0713   -1.2063 C.ar      1 <0>        -0.0457
      5 C5          0.6666   -2.6225   -0.0940 C.ar      1 <0>        -0.0966
      6 C6          0.6549   -1.9445    1.1090 C.ar      1 <0>        -0.1037
      7 C7          0.0336   -0.7059    1.2005 C.ar      1 <0>         0.1658
      8 N1          0.0256   -0.0136    2.4174 N.am      1 <0>        -0.6831
      9 C8         -0.0559   -0.6929    3.5786 C.2       1 <0>         0.7047
     10 O1         -0.0400   -1.9087    3.5741 O.2       1 <0>        -0.5677
     11 N2         -0.1550   -0.0246    4.7447 N.am      1 <0>        -0.7416
     12 C9         -0.2436   -0.7630    6.0069 C.3       1 <0>         0.1429
     13 C10        -0.3465    0.2257    7.1700 C.3       1 <0>        -0.1020
     14 C11        -0.4377   -0.5338    8.4684 C.ar      1 <0>        -0.0229
     15 C12        -1.6726   -0.9024    8.9684 C.ar      1 <0>        -0.1340
     16 C13        -1.7562   -1.5991   10.1594 C.ar      1 <0>        -0.0149
     17 C14        -0.6048   -1.9277   10.8502 C.ar      1 <0>        -0.6764
     18 C15         0.6302   -1.5599   10.3498 C.ar      1 <0>        -0.0149
     19 C16         0.7140   -0.8669    9.1566 C.ar      1 <0>        -0.1341
     20 S1         -0.7114   -2.8147   12.3689 S.o2      1 <0>         2.7011
     21 O2          0.4755   -2.5232   13.0937 O.2       1 <0>        -0.9624
     22 O3         -2.0070   -2.5635   12.8959 O.2       1 <0>        -0.9624
     23 N3         -0.6557   -4.4279   11.9986 N.pl3     1 <0>        -1.2497
     24 Cl1         0.0708   -2.9264   -2.7171 Cl        1 <0>        -0.0693
     25 H1         -0.5516    1.9714   -0.0528 H         1 <0>         0.0749
     26 H2         -2.0953    1.2211   -0.5242 H         1 <0>         0.0753
     27 H3         -1.6447    1.3251    1.1946 H         1 <0>         0.0656
     28 H4         -1.0474   -0.4124   -1.9856 H         1 <0>         0.1375
     29 H5          1.1535   -3.5838   -0.1669 H         1 <0>         0.1370
     30 H6          1.1322   -2.3752    1.9767 H         1 <0>         0.1506
     31 H7          0.0787    0.9549    2.4247 H         1 <0>         0.4085
     32 H8         -0.1677    0.9453    4.7483 H         1 <0>         0.3997
     33 H9         -1.1271   -1.4012    5.9933 H         1 <0>         0.0738
     34 H10         0.6474   -1.3785    6.1311 H         1 <0>         0.0739
     35 H11         0.5370    0.8639    7.1837 H         1 <0>         0.0884
     36 H12        -1.2375    0.8413    7.0459 H         1 <0>         0.0884
     37 H13        -2.5722   -0.6457    8.4287 H         1 <0>         0.1362
     38 H14        -2.7211   -1.8864   10.5503 H         1 <0>         0.1453
     39 H15         1.5297   -1.8163   10.8897 H         1 <0>         0.1453
     40 H16         1.6791   -0.5829    8.7638 H         1 <0>         0.1363
     41 H17        -0.5774   -4.7109   11.0741 H         1 <0>         0.4172
     42 H18        -0.7013   -5.0897   12.7062 H         1 <0>         0.4220
@<TRIPOS>BOND
     1    1    2 1
     2    1   25 1
     3    1   26 1
     4    1   27 1
     5    2    7 ar
     6    2    3 ar
     7    3    4 ar
     8    3   28 1
     9    4    5 ar
    10    4   24 1
    11    5    6 ar
    12    5   29 1
    13    6    7 ar
    14    6   30 1
    15    7    8 1
    16    8    9 am
    17    8   31 1
    18    9   10 2
    19    9   11 am
    20   11   12 1
    21   11   32 1
    22   12   13 1
    23   12   33 1
    24   12   34 1
    25   13   14 1
    26   13   35 1
    27   13   36 1
    28   14   19 ar
    29   14   15 ar
    30   15   16 ar
    31   15   37 1
    32   16   17 ar
    33   16   38 1
    34   17   18 ar
    35   17   20 1
    36   18   19 ar
    37   18   39 1
    38   19   40 1
    39   20   21 2
    40   20   22 2
    41   20   23 1
    42   23   41 1
    43   23   42 1
@<TRIPOS>MOLECULE
ZINC51117974
   35    36     0     0     0
SMALL
USER_CHARGES

@<TRIPOS>ATOM
      1 C1         -0.0532    1.5836   -0.0092 C.3       1 <0>        -0.1600
      2 C2         -0.0205    0.0541    0.0113 C.3       1 <0>         0.1830
      3 H1          0.5000   -0.3101   -0.8744 H         1 <0>         0.1044
      4 C3          0.7016   -0.4164    1.2474 C.ar      1 <0>        -0.0803
      5 C4          0.0413   -0.4540    2.4613 C.ar      1 <0>        -0.1104
      6 C5          0.7031   -0.8859    3.5953 C.ar      1 <0>        -0.0840
      7 C6          2.0264   -1.2807    3.5153 C.ar      1 <0>        -0.0886
      8 C7          2.6868   -1.2429    2.3005 C.ar      1 <0>        -0.0844
      9 C8          2.0226   -0.8158    1.1661 C.ar      1 <0>        -0.0992
     10 Br1         2.9326   -1.8711    5.0665 Br        1 <0>        -0.0444
     11 N1         -1.3910   -0.4635    0.0196 N.am      1 <0>        -0.7166
     12 C9         -2.0585   -0.6220   -1.1405 C.2       1 <0>         0.5857
     13 O1         -1.5232   -0.3354   -2.1941 O.2       1 <0>        -0.5479
     14 C10        -3.4377   -1.1429   -1.1322 C.ar      1 <0>        -0.2682
     15 C11        -4.0225   -1.5925    0.0575 C.ar      1 <0>         0.0373
     16 C12        -5.3201   -2.0718    0.0121 C.ar      1 <0>        -0.2246
     17 C13        -5.9968   -2.0932   -1.1956 C.ar      1 <0>         0.2227
     18 N2         -5.4276   -1.6655   -2.3053 N.ar      1 <0>        -0.5200
     19 C14        -4.1911   -1.1918   -2.3172 C.ar      1 <0>         0.4691
     20 N3         -3.6360   -0.7482   -3.5037 N.pl3     1 <0>        -0.5362
     21 N4         -4.3998   -0.6881   -4.6346 N.3       1 <0>        -0.6025
     22 Br2        -6.1620   -2.6931    1.5872 Br        1 <0>        -0.0321
     23 H2          0.9665    1.9688   -0.0153 H         1 <0>         0.0726
     24 H3         -0.5755    1.9240   -0.9033 H         1 <0>         0.0679
     25 H4         -0.5738    1.9478    0.8765 H         1 <0>         0.0618
     26 H5         -0.9918   -0.1454    2.5237 H         1 <0>         0.1294
     27 H6          0.1872   -0.9149    4.5437 H         1 <0>         0.1368
     28 H7          3.7200   -1.5511    2.2376 H         1 <0>         0.1372
     29 H8          2.5369   -0.7902    0.2167 H         1 <0>         0.1362
     30 H9         -1.8180   -0.6922    0.8600 H         1 <0>         0.4014
     31 H10        -3.4745   -1.5663    0.9878 H         1 <0>         0.1434
     32 H11        -7.0093   -2.4676   -1.2293 H         1 <0>         0.1720
     33 H12        -2.7043   -0.4797   -3.5328 H         1 <0>         0.4307
     34 H13        -5.2211   -0.1210   -4.4866 H         1 <0>         0.3465
     35 H14        -3.8613   -0.3472   -5.4169 H         1 <0>         0.3611
@<TRIPOS>BOND
     1    1    2 1
     2    1   23 1
     3    1   24 1
     4    1   25 1
     5    2    3 1
     6    2    4 1
     7    2   11 1
     8    4    9 ar
     9    4    5 ar
    10    5    6 ar
    11    5   26 1
    12    6    7 ar
    13    6   27 1
    14    7    8 ar
    15    7   10 1
    16    8    9 ar
    17    8   28 1
    18    9   29 1
    19   11   12 am
    20   11   30 1
    21   12   13 2
    22   12   14 1
    23   14   19 ar
    24   14   15 ar
    25   15   16 ar
    26   15   31 1
    27   16   17 ar
    28   16   22 1
    29   17   18 ar
    30   17   32 1
    31   18   19 ar
    32   19   20 1
    33   20   21 1
    34   20   33 1
    35   21   34 1
    36   21   35 1
@<TRIPOS>MOLECULE
ZINC17014845
   35    37     0     0     0
SMALL
USER_CHARGES

@<TRIPOS>ATOM
      1 C1         -0.0836    1.4554   -0.5761 C.3       1 <0>        -0.0635
      2 C2         -0.0392   -0.0343   -0.3525 C.2       1 <0>        -0.0626
      3 C3         -1.0758   -0.8210   -0.0264 C.2       1 <0>        -0.0221
      4 N1         -0.6172   -2.0824    0.0804 N.2       1 <0>        -0.4593
      5 C4          0.6682   -2.0828   -0.1719 C.2       1 <0>         0.4140
      6 O1          1.0503   -0.8264   -0.4489 O.3       1 <0>        -0.2159
      7 N2          1.4937   -3.1947   -0.1605 N.am      1 <0>        -0.6206
      8 C5          0.9849   -4.4089    0.1282 C.2       1 <0>         0.6346
      9 O2         -0.2016   -4.5283    0.3793 O.2       1 <0>        -0.4861
     10 C6          1.8251   -5.5405    0.1397 C.2       1 <0>        -0.4241
     11 C7          1.5169   -6.8797    0.4027 C.2       1 <0>         0.4952
     12 N3          2.5210   -7.7248    0.3393 N.2       1 <0>        -0.6184
     13 C8          3.7437   -7.3225    0.0440 C.2       1 <0>         0.3615
     14 S1          3.5766   -5.6640   -0.1848 S.3       1 <0>         0.1602
     15 N4          4.8879   -8.0841   -0.0590 N.pl3     1 <0>        -0.5922
     16 C9          4.8111   -9.4782    0.0338 C.ar      1 <0>         0.1379
     17 C10         3.5743  -10.1087    0.0280 C.ar      1 <0>        -0.1201
     18 C11         3.5017  -11.4862    0.1194 C.ar      1 <0>        -0.0188
     19 C12         4.6602  -12.2371    0.2166 C.ar      1 <0>        -0.1019
     20 C13         5.8939  -11.6128    0.2227 C.ar      1 <0>        -0.1118
     21 C14         5.9739  -10.2356    0.1263 C.ar      1 <0>         0.0697
     22 F1          7.1797   -9.6264    0.1268 F         1 <0>        -0.1318
     23 Cl1         1.9553  -12.2752    0.1127 Cl        1 <0>        -0.0506
     24 N5          0.2284   -7.2906    0.7124 N.pl3     1 <0>        -0.8038
     25 H1          0.9132    1.8140   -0.8330 H         1 <0>         0.0764
     26 H2         -0.7718    1.6801   -1.3910 H         1 <0>         0.0890
     27 H3         -0.4242    1.9494    0.3338 H         1 <0>         0.0890
     28 H4         -2.0959   -0.4998    0.1243 H         1 <0>         0.1875
     29 H5          2.4381   -3.0997   -0.3604 H         1 <0>         0.4187
     30 H6          5.7463   -7.6537   -0.1957 H         1 <0>         0.4396
     31 H7          2.6697   -9.5236   -0.0475 H         1 <0>         0.1909
     32 H8          4.6004  -13.3131    0.2882 H         1 <0>         0.1474
     33 H9          6.7961  -12.2016    0.2991 H         1 <0>         0.1534
     34 H10        -0.4914   -6.6415    0.7516 H         1 <0>         0.4304
     35 H11         0.0473   -8.2269    0.8896 H         1 <0>         0.4083
@<TRIPOS>BOND
     1    1    2 1
     2    1   25 1
     3    1   26 1
     4    1   27 1
     5    2    6 1
     6    2    3 2
     7    3    4 1
     8    3   28 1
     9    4    5 2
    10    5    6 1
    11    5    7 1
    12    7    8 am
    13    7   29 1
    14    8    9 2
    15    8   10 1
    16   10   14 1
    17   10   11 2
    18   11   12 1
    19   11   24 1
    20   12   13 2
    21   13   14 1
    22   13   15 1
    23   15   16 1
    24   15   30 1
    25   16   21 ar
    26   16   17 ar
    27   17   18 ar
    28   17   31 1
    29   18   19 ar
    30   18   23 1
    31   19   20 ar
    32   19   32 1
    33   20   21 ar
    34   20   33 1
    35   21   22 1
    36   24   34 1
    37   24   35 1
@<TRIPOS>MOLECULE
ZINC10745994
   31    32     0     0     0
SMALL
USER_CHARGES
1-(3,4-difluorophenyl)sulfonylpyrrolidine-2-carboxamide
@<TRIPOS>ATOM
      1 C1         -3.1940   -4.6025    0.6651 C.ar      1 <0>         0.0000
      2 C2         -4.3126   -5.3134    1.0586 C.ar      1 <0>        -0.1446
      3 C3         -5.3055   -4.6897    1.7933 C.ar      1 <0>         0.1269
      4 C4         -5.1773   -3.3514    2.1338 C.ar      1 <0>         0.0520
      5 C5         -4.0566   -2.6427    1.7384 C.ar      1 <0>        -0.0258
      6 C6         -3.0660   -3.2689    1.0047 C.ar      1 <0>        -0.6707
      7 S1         -1.6392   -2.3656    0.5017 S.o2      1 <0>         2.7110
      8 O1         -1.5736   -1.2145    1.3322 O.2       1 <0>        -0.9369
      9 O2         -0.5751   -3.3033    0.4138 O.2       1 <0>        -0.9334
     10 N1         -1.9205   -1.8233   -1.0375 N.pl3     1 <0>        -0.9909
     11 C7         -2.6509   -0.5937   -1.3952 C.3       1 <0>         0.1116
     12 C8         -2.1197   -0.2150   -2.8026 C.3       1 <0>        -0.1278
     13 C9         -1.9500   -1.6124   -3.4551 C.3       1 <0>        -0.1159
     14 C10        -1.4888   -2.4917   -2.2738 C.3       1 <0>         0.1325
     15 H1         -1.9498   -3.4770   -2.3429 H         1 <0>         0.0989
     16 C11         0.0121   -2.6264   -2.2863 C.2       1 <0>         0.5065
     17 O3          0.6974   -1.8314   -1.6786 O.2       1 <0>        -0.5241
     18 N2          0.5930   -3.6303   -2.9728 N.am      1 <0>        -0.8492
     19 F1         -6.1455   -2.7403    2.8511 F         1 <0>        -0.1188
     20 F2         -6.3989   -5.3837    2.1783 F         1 <0>        -0.1151
     21 H2         -2.4215   -5.0887    0.0878 H         1 <0>         0.1565
     22 H3         -4.4116   -6.3553    0.7922 H         1 <0>         0.1601
     23 H4         -3.9557   -1.6004    2.0026 H         1 <0>         0.1661
     24 H5         -3.7232   -0.7862   -1.4310 H         1 <0>         0.0754
     25 H6         -2.4307    0.1997   -0.6809 H         1 <0>         0.0912
     26 H7         -1.1636    0.3041   -2.7364 H         1 <0>         0.0846
     27 H8         -2.8502    0.3840   -3.3465 H         1 <0>         0.0914
     28 H9         -1.1889   -1.5840   -4.2349 H         1 <0>         0.0876
     29 H10        -2.8978   -1.9715   -3.8562 H         1 <0>         0.0928
     30 H11         0.0449   -4.2661   -3.4589 H         1 <0>         0.4015
     31 H12         1.5590   -3.7169   -2.9809 H         1 <0>         0.4065
@<TRIPOS>BOND
     1    1    6 ar
     2    1    2 ar
     3    1   21 1
     4    2    3 ar
     5    2   22 1
     6    3    4 ar
     7    3   20 1
     8    4    5 ar
     9    4   19 1
    10    5    6 ar
    11    5   23 1
    12    6    7 1
    13    7    8 2
    14    7    9 2
    15    7   10 1
    16   10   14 1
    17   10   11 1
    18   11   12 1
    19   11   24 1
    20   11   25 1
    21   12   13 1
    22   12   26 1
    23   12   27 1
    24   13   14 1
    25   13   28 1
    26   13   29 1
    27   14   15 1
    28   14   16 1
    29   16   17 2
    30   16   18 am
    31   18   30 1
    32   18   31 1
@<TRIPOS>MOLECULE
ZINC35773859
   39    40     0     0     0
SMALL
USER_CHARGES

@<TRIPOS>ATOM
      1 C1          0.0741    2.3366   -0.5844 C.3       1 <0>        -0.1207
      2 C2          0.3567    0.8830   -0.3047 C.ar      1 <0>        -0.0575
      3 C3          0.1721   -0.0604   -1.2991 C.ar      1 <0>        -0.0808
      4 C4          0.4298   -1.3951   -1.0466 C.ar      1 <0>        -0.6270
      5 C5          0.8731   -1.7907    0.2004 C.ar      1 <0>        -0.1026
      6 C6          1.0599   -0.8459    1.2011 C.ar      1 <0>         0.2033
      7 C7          0.8050    0.4952    0.9424 C.ar      1 <0>        -0.1105
      8 C8          1.0117    1.5246    2.0235 C.3       1 <0>        -0.1170
      9 N1          1.5081   -1.2424    2.4632 N.pl3     1 <0>        -0.8753
     10 S1          0.1918   -2.5929   -2.3167 S.o2      1 <0>         2.6909
     11 O1         -0.1872   -3.8004   -1.6704 O.2       1 <0>        -0.9579
     12 O2         -0.6140   -1.9758   -3.3112 O.2       1 <0>        -0.9496
     13 N2          1.6695   -2.8711   -3.0105 N.pl3     1 <0>        -0.9972
     14 C9          2.4608   -4.0602   -2.6563 C.3       1 <0>         0.0798
     15 C10         2.8878   -4.7601   -3.9516 C.3       1 <0>         0.0500
     16 O3          3.5197   -3.8106   -4.8135 O.3       1 <0>        -0.3764
     17 C11         2.6681   -2.7403   -5.2295 C.3       1 <0>         0.0538
     18 C12         2.2274   -1.9398   -4.0038 C.3       1 <0>         0.1188
     19 H1          3.0869   -1.4214   -3.5789 H         1 <0>         0.0852
     20 C13         1.1606   -0.9216   -4.4117 C.3       1 <0>        -0.1883
     21 H2          0.9775    2.8165   -0.9609 H         1 <0>         0.0758
     22 H3         -0.7171    2.4160   -1.3299 H         1 <0>         0.0727
     23 H4         -0.2425    2.8287    0.3352 H         1 <0>         0.0720
     24 H5         -0.1744    0.2462   -2.2750 H         1 <0>         0.1416
     25 H6          1.0738   -2.8334    0.3971 H         1 <0>         0.1335
     26 H7          0.0901    1.6433    2.5931 H         1 <0>         0.0745
     27 H8          1.8105    1.1972    2.6889 H         1 <0>         0.0643
     28 H9          1.2841    2.4777    1.5702 H         1 <0>         0.0763
     29 H10         1.6892   -2.1785    2.6415 H         1 <0>         0.4012
     30 H11         1.6382   -0.5816    3.1613 H         1 <0>         0.4005
     31 H12         3.3443   -3.7589   -2.0934 H         1 <0>         0.0794
     32 H13         1.8554   -4.7383   -2.0550 H         1 <0>         0.1067
     33 H14         3.5879   -5.5623   -3.7182 H         1 <0>         0.1094
     34 H15         2.0102   -5.1747   -4.4477 H         1 <0>         0.0588
     35 H16         3.2102   -2.0893   -5.9154 H         1 <0>         0.1083
     36 H17         1.7898   -3.1475   -5.7303 H         1 <0>         0.0605
     37 H18         0.7441   -0.4545   -3.5192 H         1 <0>         0.0702
     38 H19         1.6110   -0.1575   -5.0452 H         1 <0>         0.0764
     39 H20         0.3667   -1.4275   -4.9611 H         1 <0>         0.0970
@<TRIPOS>BOND
     1    1    2 1
     2    1   21 1
     3    1   22 1
     4    1   23 1
     5    2    7 ar
     6    2    3 ar
     7    3    4 ar
     8    3   24 1
     9    4    5 ar
    10    4   10 1
    11    5    6 ar
    12    5   25 1
    13    6    7 ar
    14    6    9 1
    15    7    8 1
    16    8   26 1
    17    8   27 1
    18    8   28 1
    19    9   29 1
    20    9   30 1
    21   10   11 2
    22   10   12 2
    23   10   13 1
    24   13   18 1
    25   13   14 1
    26   14   15 1
    27   14   31 1
    28   14   32 1
    29   15   16 1
    30   15   33 1
    31   15   34 1
    32   16   17 1
    33   17   18 1
    34   17   35 1
    35   17   36 1
    36   18   19 1
    37   18   20 1
    38   20   37 1
    39   20   38 1
    40   20   39 1
@<TRIPOS>MOLECULE
ZINC42786195
   26    27     0     0     0
SMALL
USER_CHARGES

@<TRIPOS>ATOM
      1 C1         -0.0184    1.5028    0.0103 C.3       1 <0>        -0.1633
      2 C2          0.0021   -0.0041    0.0020 C.2       1 <0>         0.5138
      3 O1          1.0605   -0.5961   -0.0113 O.2       1 <0>        -0.5389
      4 N1         -1.1558   -0.6938    0.0094 N.am      1 <0>        -0.5231
      5 N2         -1.1368   -2.0946    0.0017 N.am      1 <0>        -0.5111
      6 C3         -2.2947   -2.7843    0.0090 C.2       1 <0>         0.6046
      7 O2         -3.3564   -2.1904    0.0223 O.2       1 <0>        -0.5108
      8 C4         -2.2748   -4.2539    0.0009 C.2       1 <0>        -0.0249
      9 C5         -3.3748   -5.0504    0.0017 C.2       1 <0>        -0.0863
     10 C6         -2.8787   -6.4262   -0.0090 C.ar      1 <0>        -0.1437
     11 C7         -3.4910   -7.6819   -0.0130 C.ar      1 <0>        -0.0235
     12 C8         -2.7207   -8.8111   -0.0232 C.ar      1 <0>        -0.1099
     13 C9         -1.3347   -8.7170   -0.0291 C.ar      1 <0>        -0.0530
     14 C10        -0.7123   -7.4878   -0.0248 C.ar      1 <0>        -0.1009
     15 C11        -1.4751   -6.3255   -0.0154 C.ar      1 <0>         0.0896
     16 O3         -1.1608   -5.0154   -0.0143 O.3       1 <0>        -0.1813
     17 Br1        -3.5469  -10.5120   -0.0286 Br        1 <0>        -0.0337
     18 H1          1.0042    1.8801    0.0026 H         1 <0>         0.1048
     19 H2         -0.5455    1.8639   -0.8728 H         1 <0>         0.0972
     20 H3         -0.5286    1.8543    0.9071 H         1 <0>         0.0972
     21 H4         -2.0023   -0.2203    0.0200 H         1 <0>         0.4354
     22 H5         -0.2903   -2.5681   -0.0090 H         1 <0>         0.4393
     23 H6         -4.4068   -4.7323    0.0088 H         1 <0>         0.1785
     24 H7         -4.5682   -7.7602   -0.0077 H         1 <0>         0.1448
     25 H8         -0.7384   -9.6175   -0.0368 H         1 <0>         0.1507
     26 H9          0.3660   -7.4272   -0.0288 H         1 <0>         0.1484
@<TRIPOS>BOND
     1    1    2 1
     2    1   18 1
     3    1   19 1
     4    1   20 1
     5    2    3 2
     6    2    4 am
     7    4    5 1
     8    4   21 1
     9    5    6 am
    10    5   22 1
    11    6    7 2
    12    6    8 1
    13    8   16 1
    14    8    9 2
    15    9   10 1
    16    9   23 1
    17   10   15 ar
    18   10   11 ar
    19   11   12 ar
    20   11   24 1
    21   12   13 ar
    22   12   17 1
    23   13   14 ar
    24   13   25 1
    25   14   15 ar
    26   14   26 1
    27   15   16 1
@<TRIPOS>MOLECULE
ZINC48926774
   39    40     0     0     0
SMALL
USER_CHARGES

@<TRIPOS>ATOM
      1 C1          1.5675   -2.3950    2.7063 C.3       1 <0>        -0.1685
      2 C2          0.7923   -2.0680    1.4561 C.ar      1 <0>         0.0610
      3 C3          0.8590   -2.9111    0.3617 C.ar      1 <0>        -0.1984
      4 C4          0.1497   -2.6146   -0.7876 C.ar      1 <0>        -0.0135
      5 C5         -0.6285   -1.4750   -0.8461 C.ar      1 <0>        -0.2216
      6 C6         -0.6980   -0.6264    0.2513 C.ar      1 <0>         0.3169
      7 C7          0.0118   -0.9300    1.4063 C.ar      1 <0>        -0.7527
      8 S1         -0.0781    0.1396    2.8037 S.o2      1 <0>         2.6899
      9 O1          0.7063   -0.4604    3.8255 O.2       1 <0>        -0.9454
     10 O2          0.1706    1.4543    2.3254 O.2       1 <0>        -0.9668
     11 N1         -1.6459    0.1183    3.3365 N.pl3     1 <0>        -0.9946
     12 C8         -2.5304    1.2767    3.1341 C.3       1 <0>         0.0726
     13 C9         -3.1794    1.6301    4.4772 C.3       1 <0>         0.0521
     14 O3         -3.7839    0.4586    5.0305 O.3       1 <0>        -0.3724
     15 C10        -2.8610   -0.5926    5.3255 C.3       1 <0>         0.0612
     16 C11        -2.1974   -1.0618    4.0208 C.3       1 <0>         0.1497
     17 C12        -3.2361   -1.7388    3.1243 C.3       1 <0>        -0.1539
     18 C13        -1.0704   -2.0465    4.3392 C.3       1 <0>        -0.2037
     19 N2         -1.4840    0.5269    0.1956 N.pl3     1 <0>        -0.8706
     20 H1          0.9079   -2.8790    3.4266 H         1 <0>         0.0967
     21 H2          2.3900   -3.0660    2.4588 H         1 <0>         0.0695
     22 H3          1.9652   -1.4765    3.1379 H         1 <0>         0.1160
     23 H4          1.4667   -3.8028    0.4047 H         1 <0>         0.1293
     24 H5          0.2045   -3.2747   -1.6406 H         1 <0>         0.1303
     25 H6         -1.1820   -1.2438   -1.7442 H         1 <0>         0.1291
     26 H7         -1.9482    2.1247    2.7733 H         1 <0>         0.1042
     27 H8         -3.3034    1.0259    2.4076 H         1 <0>         0.0806
     28 H9         -2.4185    2.0050    5.1617 H         1 <0>         0.0593
     29 H10        -3.9408    2.3948    4.3237 H         1 <0>         0.1092
     30 H11        -2.0990   -0.2257    6.0131 H         1 <0>         0.0618
     31 H12        -3.3933   -1.4269    5.7823 H         1 <0>         0.1067
     32 H13        -2.7643   -2.0492    2.1920 H         1 <0>         0.0592
     33 H14        -3.6423   -2.6122    3.6344 H         1 <0>         0.0696
     34 H15        -4.0417   -1.0372    2.9078 H         1 <0>         0.0667
     35 H16        -0.3629   -1.5796    5.0244 H         1 <0>         0.1060
     36 H17        -1.4888   -2.9402    4.8020 H         1 <0>         0.0805
     37 H18        -0.5567   -2.3209    3.4178 H         1 <0>         0.0767
     38 H19        -2.0410    0.6972   -0.5801 H         1 <0>         0.4087
     39 H20        -1.4728    1.1575    0.9325 H         1 <0>         0.3984
@<TRIPOS>BOND
     1    1    2 1
     2    1   20 1
     3    1   21 1
     4    1   22 1
     5    2    7 ar
     6    2    3 ar
     7    3    4 ar
     8    3   23 1
     9    4    5 ar
    10    4   24 1
    11    5    6 ar
    12    5   25 1
    13    6    7 ar
    14    6   19 1
    15    7    8 1
    16    8    9 2
    17    8   10 2
    18    8   11 1
    19   11   16 1
    20   11   12 1
    21   12   13 1
    22   12   26 1
    23   12   27 1
    24   13   14 1
    25   13   28 1
    26   13   29 1
    27   14   15 1
    28   15   16 1
    29   15   30 1
    30   15   31 1
    31   16   17 1
    32   16   18 1
    33   17   32 1
    34   17   33 1
    35   17   34 1
    36   18   35 1
    37   18   36 1
    38   18   37 1
    39   19   38 1
    40   19   39 1
@<TRIPOS>MOLECULE
ZINC62115756
   38    40     0     0     0
SMALL
USER_CHARGES

@<TRIPOS>ATOM
      1 C1         -0.0036    1.3021   -0.3520 C.ar      1 <0>        -0.1307
      2 C2          1.0024    2.1488    0.0663 C.ar      1 <0>        -0.0869
      3 C3          2.0921    1.6405    0.7752 C.ar      1 <0>        -0.1210
      4 C4          2.1629    0.2721    1.0620 C.ar      1 <0>        -0.0626
      5 C5          1.1465   -0.5648    0.6396 C.ar      1 <0>         0.0991
      6 C6          0.0652   -0.0485   -0.0686 C.ar      1 <0>        -0.1550
      7 N1          1.1845   -1.9384    0.9195 N.am      1 <0>        -0.5218
      8 C7          2.4416   -2.5317    1.3954 C.3       1 <0>         0.0944
      9 C8          3.0233   -1.5997    2.4665 C.3       1 <0>        -0.1407
     10 C9          3.3512   -0.2525    1.8235 C.3       1 <0>        -0.0804
     11 C10         0.0859   -2.7017    0.7551 C.2       1 <0>         0.5071
     12 O1         -0.9291   -2.2144    0.3042 O.2       1 <0>        -0.5245
     13 C11         0.1187   -4.1605    1.1316 C.3       1 <0>        -0.1350
     14 H1          0.6572   -4.2965    2.0695 H         1 <0>         0.1364
     15 C12         0.7808   -4.9900    0.0075 C.3       1 <0>        -0.1385
     16 C13        -0.0807   -6.2773   -0.0264 C.3       1 <0>         0.0002
     17 N2         -1.4547   -5.7735    0.2274 N.4       1 <0>        -0.5156
     18 C14        -1.3133   -4.7137    1.2525 C.3       1 <0>         0.0039
     19 C15         3.1691    2.5449    1.2216 C.2       1 <0>         0.5191
     20 O2          3.0530    3.7534    1.0745 O.co2     1 <0>        -0.6780
     21 O3          4.1778    2.0861    1.7388 O.co2     1 <0>        -0.6760
     22 H2         -0.8480    1.6962   -0.8978 H         1 <0>         0.1193
     23 H3          0.9469    3.2045   -0.1550 H         1 <0>         0.1295
     24 H4         -0.7247   -0.7071   -0.3981 H         1 <0>         0.1636
     25 H5          2.2465   -3.5135    1.8267 H         1 <0>         0.0827
     26 H6          3.1431   -2.6245    0.5663 H         1 <0>         0.0835
     27 H7          2.2921   -1.4564    3.2621 H         1 <0>         0.0671
     28 H8          3.9321   -2.0388    2.8781 H         1 <0>         0.0853
     29 H9          4.1910   -0.3753    1.1396 H         1 <0>         0.0780
     30 H10         3.6231    0.4608    2.6016 H         1 <0>         0.1228
     31 H11         0.7246   -4.4630   -0.9449 H         1 <0>         0.1049
     32 H12         1.8151   -5.2246    0.2594 H         1 <0>         0.1264
     33 H13        -0.0206   -6.7548   -1.0045 H         1 <0>         0.1410
     34 H14         0.2273   -6.9673    0.7592 H         1 <0>         0.1395
     35 H15        -1.8465   -5.3895   -0.6194 H         1 <0>         0.4351
     36 H16        -1.4665   -5.1338    2.2466 H         1 <0>         0.1410
     37 H17        -2.0354   -3.9184    1.0673 H         1 <0>         0.1531
     38 H18        -2.0394   -6.5181    0.5764 H         1 <0>         0.4336
@<TRIPOS>BOND
     1    1    6 ar
     2    1    2 ar
     3    1   22 1
     4    2    3 ar
     5    2   23 1
     6    3    4 ar
     7    3   19 1
     8    4   10 1
     9    4    5 ar
    10    5    6 ar
    11    5    7 1
    12    6   24 1
    13    7    8 1
    14    7   11 am
    15    8    9 1
    16    8   25 1
    17    8   26 1
    18    9   10 1
    19    9   27 1
    20    9   28 1
    21   10   29 1
    22   10   30 1
    23   11   12 2
    24   11   13 1
    25   13   14 1
    26   13   18 1
    27   13   15 1
    28   15   16 1
    29   15   31 1
    30   15   32 1
    31   16   17 1
    32   16   33 1
    33   16   34 1
    34   17   18 1
    35   17   35 1
    36   17   38 1
    37   18   36 1
    38   18   37 1
    39   19   20 2
    40   19   21 1
@<TRIPOS>MOLECULE
ZINC22440854
   50    51     0     0     0
SMALL
USER_CHARGES

@<TRIPOS>ATOM
      1 C1         -0.0187    1.5258    0.0104 C.3       1 <0>        -0.2111
      2 C2          0.0021   -0.0041    0.0020 C.3       1 <0>         0.1162
      3 C3          0.7285   -0.4998   -1.2522 C.3       1 <0>        -0.1821
      4 C4          2.1840   -0.0273   -1.2097 C.3       1 <0>         0.0450
      5 O1          2.8054   -0.5096   -0.0166 O.3       1 <0>        -0.3427
      6 C5          2.1976   -0.0403    1.1886 C.3       1 <0>         0.0431
      7 C6          0.7426   -0.5133    1.2424 C.3       1 <0>         0.0032
      8 H1          0.7143   -1.6028    1.2619 H         1 <0>         0.1628
      9 N1          0.0983    0.0174    2.4512 N.4       1 <0>        -0.4952
     10 C7          0.7333   -0.5655    3.6407 C.3       1 <0>        -0.0424
     11 C8          0.0622   -0.0128    4.8997 C.3       1 <0>        -0.0425
     12 N2          0.6972   -0.5957    6.0892 N.4       1 <0>        -0.4953
     13 C9          0.0529   -0.0650    7.2980 C.3       1 <0>         0.0032
     14 H2         -1.0210   -0.2446    7.2471 H         1 <0>         0.1626
     15 C10         0.3157    1.4398    7.3991 C.3       1 <0>         0.0432
     16 O2         -0.2626    1.9430    8.6050 O.3       1 <0>        -0.3427
     17 C11         0.2738    1.3629    9.7958 C.3       1 <0>         0.0451
     18 C12         0.0093   -0.1450    9.7909 C.3       1 <0>        -0.1823
     19 C13         0.6305   -0.7618    8.5338 C.3       1 <0>         0.1162
     20 C14         2.1480   -0.5698    8.5672 C.3       1 <0>        -0.2111
     21 O3          0.3244   -2.1567    8.4829 O.3       1 <0>        -0.5657
     22 O4         -1.3380   -0.5003    0.0080 O.3       1 <0>        -0.5659
     23 H3          1.0039    1.9031    0.0027 H         1 <0>         0.0879
     24 H4         -0.5459    1.8868   -0.8726 H         1 <0>         0.1002
     25 H5         -0.5289    1.8773    0.9072 H         1 <0>         0.0628
     26 H6          0.6999   -1.5890   -1.2831 H         1 <0>         0.0993
     27 H7          0.2403   -0.0963   -2.1393 H         1 <0>         0.1092
     28 H8          2.7170   -0.4131   -2.0787 H         1 <0>         0.1259
     29 H9          2.2129    1.0623   -1.2196 H         1 <0>         0.0732
     30 H10         2.7404   -0.4355    2.0472 H         1 <0>         0.1174
     31 H11         2.2267    1.0491    1.2100 H         1 <0>         0.0825
     32 H12         0.1999    1.0210    2.4734 H         1 <0>         0.4317
     33 H13         0.6236   -1.6497    3.6167 H         1 <0>         0.1611
     34 H14         1.7923   -0.3077    3.6504 H         1 <0>         0.1560
     35 H15         0.1720    1.0714    4.9237 H         1 <0>         0.1560
     36 H16        -0.9968   -0.2706    4.8899 H         1 <0>         0.1611
     37 H17         0.5957   -1.5993    6.0669 H         1 <0>         0.4468
     38 H18         1.3904    1.6213    7.4080 H         1 <0>         0.0824
     39 H19        -0.1314    1.9452    6.5430 H         1 <0>         0.1174
     40 H20         1.3480    1.5434    9.8360 H         1 <0>         0.0732
     41 H21        -0.2035    1.8129   10.6663 H         1 <0>         0.1259
     42 H22         0.4562   -0.5960   10.6769 H         1 <0>         0.1092
     43 H23        -1.0655   -0.3263    9.7915 H         1 <0>         0.0992
     44 H24         2.3787    0.4947    8.6100 H         1 <0>         0.0879
     45 H25         2.5577   -1.0660    9.4470 H         1 <0>         0.1003
     46 H26         2.5887   -1.0012    7.6685 H         1 <0>         0.0627
     47 H27         0.6608   -2.6609    9.2363 H         1 <0>         0.4151
     48 H28        -1.8651   -0.2186   -0.7522 H         1 <0>         0.4151
     49 H29        -0.8820   -0.2213    2.4422 H         1 <0>         0.4469
     50 H30         1.6776   -0.3570    6.0982 H         1 <0>         0.4317
@<TRIPOS>BOND
     1    1    2 1
     2    1   23 1
     3    1   24 1
     4    1   25 1
     5    2    7 1
     6    2    3 1
     7    2   22 1
     8    3    4 1
     9    3   26 1
    10    3   27 1
    11    4    5 1
    12    4   28 1
    13    4   29 1
    14    5    6 1
    15    6    7 1
    16    6   30 1
    17    6   31 1
    18    7    8 1
    19    7    9 1
    20    9   10 1
    21    9   32 1
    22    9   49 1
    23   10   11 1
    24   10   33 1
    25   10   34 1
    26   11   12 1
    27   11   35 1
    28   11   36 1
    29   12   13 1
    30   12   37 1
    31   12   50 1
    32   13   14 1
    33   13   19 1
    34   13   15 1
    35   15   16 1
    36   15   38 1
    37   15   39 1
    38   16   17 1
    39   17   18 1
    40   17   40 1
    41   17   41 1
    42   18   19 1
    43   18   42 1
    44   18   43 1
    45   19   20 1
    46   19   21 1
    47   20   44 1
    48   20   45 1
    49   20   46 1
    50   21   47 1
    51   22   48 1
@<TRIPOS>MOLECULE
ZINC02924296
   41    43     0     0     0
SMALL
USER_CHARGES

@<TRIPOS>ATOM
      1 C1         -0.0166    1.3750    0.0096 C.ar      1 <0>        -0.1084
      2 C2          1.1687    2.0883    0.0021 C.ar      1 <0>        -0.1075
      3 C3          2.3801    1.4204   -0.0135 C.ar      1 <0>        -0.0944
      4 C4          2.4083    0.0417   -0.0212 C.ar      1 <0>        -0.0965
      5 C5          1.2210   -0.6848   -0.0133 C.ar      1 <0>        -0.0533
      6 C6          0.0021   -0.0041    0.0020 C.ar      1 <0>        -0.0926
      7 C7          1.5297   -2.1362   -0.0247 C.ar      1 <0>        -0.0499
      8 C8          0.6935   -3.2543   -0.0227 C.ar      1 <0>        -0.0919
      9 C9          1.2378   -4.5215   -0.0354 C.ar      1 <0>        -0.1120
     10 C10         2.6107   -4.6904   -0.0503 C.ar      1 <0>        -0.1168
     11 C11         3.4454   -3.5871   -0.0524 C.ar      1 <0>        -0.0931
     12 C12         2.9100   -2.3164   -0.0397 C.ar      1 <0>        -0.0932
     13 C13         3.5470   -0.9484   -0.0383 C.3       1 <0>         0.0005
     14 C14         4.4161   -0.7733    1.2086 C.3       1 <0>         0.1036
     15 O1          5.5525   -1.6353    1.1221 O.3       1 <0>        -0.3650
     16 C15         6.4241   -1.6025    2.1477 C.2       1 <0>         0.6594
     17 O2          6.2253   -0.8622    3.0906 O.2       1 <0>        -0.5237
     18 N1          7.5171   -2.3908    2.1287 N.am      1 <0>        -0.4935
     19 N2          7.7464   -3.2444    1.0416 N.am      1 <0>        -0.4917
     20 C16         8.8394   -4.0327    1.0226 C.2       1 <0>         0.4933
     21 O3          9.6245   -4.0032    1.9465 O.2       1 <0>        -0.5234
     22 C17         9.0860   -4.9508   -0.1467 C.3       1 <0>        -0.0143
     23 N3         10.3322   -5.6974    0.0712 N.4       1 <0>        -0.6201
     24 H1         -0.9603    1.9001    0.0260 H         1 <0>         0.1323
     25 H2          1.1483    3.1681    0.0081 H         1 <0>         0.1330
     26 H3          3.3044    1.9791   -0.0200 H         1 <0>         0.1274
     27 H4         -0.9256   -0.5570    0.0076 H         1 <0>         0.1271
     28 H5         -0.3789   -3.1269   -0.0107 H         1 <0>         0.1270
     29 H6          0.5895   -5.3854   -0.0335 H         1 <0>         0.1299
     30 H7          3.0316   -5.6850   -0.0598 H         1 <0>         0.1264
     31 H8          4.5170   -3.7211   -0.0640 H         1 <0>         0.1174
     32 H9          4.1482   -0.8134   -0.9375 H         1 <0>         0.1136
     33 H10         4.7498    0.2622    1.2764 H         1 <0>         0.0855
     34 H11         3.8348   -1.0264    2.0952 H         1 <0>         0.0824
     35 H12         8.1451   -2.3672    2.8676 H         1 <0>         0.4585
     36 H13         7.1184   -3.2680    0.3027 H         1 <0>         0.4415
     37 H14         8.2552   -5.6502   -0.2411 H         1 <0>         0.1721
     38 H15         9.1703   -4.3616   -1.0599 H         1 <0>         0.1722
     39 H16        10.4973   -6.3121   -0.7117 H         1 <0>         0.4494
     40 H17        11.1012   -5.0500    0.1585 H         1 <0>         0.4446
     41 H18        10.2541   -6.2428    0.9164 H         1 <0>         0.4445
@<TRIPOS>BOND
     1    1    6 ar
     2    1    2 ar
     3    1   24 1
     4    2    3 ar
     5    2   25 1
     6    3    4 ar
     7    3   26 1
     8    4   13 1
     9    4    5 ar
    10    5    6 ar
    11    5    7 1
    12    6   27 1
    13    7   12 ar
    14    7    8 ar
    15    8    9 ar
    16    8   28 1
    17    9   10 ar
    18    9   29 1
    19   10   11 ar
    20   10   30 1
    21   11   12 ar
    22   11   31 1
    23   12   13 1
    24   13   14 1
    25   13   32 1
    26   14   15 1
    27   14   33 1
    28   14   34 1
    29   15   16 1
    30   16   17 2
    31   16   18 am
    32   18   19 1
    33   18   35 1
    34   19   20 am
    35   19   36 1
    36   20   21 2
    37   20   22 1
    38   22   23 1
    39   22   37 1
    40   22   38 1
    41   23   39 1
    42   23   40 1
    43   23   41 1
@<TRIPOS>MOLECULE
ZINC44254244
   42    43     0     0     0
SMALL
USER_CHARGES

@<TRIPOS>ATOM
      1 C1         -0.0167    1.3784    0.0096 C.ar      1 <0>        -0.0221
      2 C2          1.1691    2.0868    0.0021 C.ar      1 <0>        -0.1069
      3 C3          2.3811    1.4088   -0.0131 C.ar      1 <0>         0.2613
      4 C4          2.3964    0.0196   -0.0208 C.ar      1 <0>        -0.1524
      5 C5          1.2073   -0.6824   -0.0132 C.ar      1 <0>        -0.0617
      6 C6          0.0021   -0.0041    0.0020 C.ar      1 <0>        -0.0365
      7 N1         -1.2705   -0.7598    0.0101 N.pl3     1 <0>         0.0251
      8 O1         -2.3248   -0.1682    0.0234 O.2       1 <0>        -0.1296
      9 O2         -1.2556   -1.9687    0.0035 O.3       1 <0>        -0.1514
     10 C7          3.7091   -0.7204   -0.0378 C.3       1 <0>         0.1144
     11 H1          4.4187   -0.2165    0.6185 H         1 <0>         0.1658
     12 C8          4.2622   -0.7449   -1.4641 C.3       1 <0>        -0.1776
     13 C9          5.6307   -1.3760   -1.4614 C.2       1 <0>         0.5158
     14 O3          6.1159   -1.7675   -0.4211 O.2       1 <0>        -0.5550
     15 N2          6.3155   -1.5052   -2.6150 N.am      1 <0>        -0.8309
     16 N3          3.5013   -2.0971    0.4306 N.4       1 <0>        -0.6385
     17 N4          3.5821    2.1220   -0.0212 N.pl3     1 <0>        -0.6898
     18 C10         4.2103    2.5159   -1.2897 C.3       1 <0>         0.1352
     19 C11         4.4671    4.0259   -1.2647 C.3       1 <0>        -0.1390
     20 C12         5.2861    4.3795   -0.0213 C.3       1 <0>        -0.1202
     21 C13         4.4976    4.0028    1.2351 C.3       1 <0>        -0.1397
     22 C14         4.2380    2.4978    1.2386 C.3       1 <0>         0.1382
     23 H2         -0.9595    1.9050    0.0260 H         1 <0>         0.1683
     24 H3          1.1537    3.1667    0.0077 H         1 <0>         0.1617
     25 H4          1.2184   -1.7623   -0.0191 H         1 <0>         0.1480
     26 H5          3.5958   -1.3252   -2.1023 H         1 <0>         0.1256
     27 H6          4.3328    0.2743   -1.8440 H         1 <0>         0.1467
     28 H7          5.9275   -1.1921   -3.4470 H         1 <0>         0.4126
     29 H8          7.1964   -1.9114   -2.6132 H         1 <0>         0.4185
     30 H9          2.8444   -2.5635   -0.1769 H         1 <0>         0.4293
     31 H10         4.3802   -2.5925    0.4192 H         1 <0>         0.4472
     32 H11         5.1555    1.9864   -1.4092 H         1 <0>         0.0599
     33 H12         3.5451    2.2720   -2.1181 H         1 <0>         0.0743
     34 H13         5.0193    4.3158   -2.1587 H         1 <0>         0.0770
     35 H14         3.5153    4.5564   -1.2364 H         1 <0>         0.0698
     36 H15         6.2272    3.8297   -0.0378 H         1 <0>         0.0640
     37 H16         5.4913    5.4500   -0.0139 H         1 <0>         0.0699
     38 H17         5.0716    4.2764    2.1205 H         1 <0>         0.0777
     39 H18         3.5456    4.5335    1.2399 H         1 <0>         0.0685
     40 H19         3.5912    2.2421    2.0778 H         1 <0>         0.0740
     41 H20         5.1856    1.9668    1.3298 H         1 <0>         0.0617
     42 H21         3.1365   -2.0809    1.3712 H         1 <0>         0.4407
@<TRIPOS>BOND
     1    1    6 ar
     2    1    2 ar
     3    1   23 1
     4    2    3 ar
     5    2   24 1
     6    3    4 ar
     7    3   17 1
     8    4    5 ar
     9    4   10 1
    10    5    6 ar
    11    5   25 1
    12    6    7 1
    13    7    8 2
    14    7    9 1
    15   10   11 1
    16   10   12 1
    17   10   16 1
    18   12   13 1
    19   12   26 1
    20   12   27 1
    21   13   14 2
    22   13   15 am
    23   15   28 1
    24   15   29 1
    25   16   30 1
    26   16   31 1
    27   16   42 1
    28   17   22 1
    29   17   18 1
    30   18   19 1
    31   18   32 1
    32   18   33 1
    33   19   20 1
    34   19   34 1
    35   19   35 1
    36   20   21 1
    37   20   36 1
    38   20   37 1
    39   21   22 1
    40   21   38 1
    41   21   39 1
    42   22   40 1
    43   22   41 1
@<TRIPOS>MOLECULE
ZINC49570833
   40    42     0     0     0
SMALL
USER_CHARGES

@<TRIPOS>ATOM
      1 C1          1.2354   -0.3157    0.6325 C.ar      1 <0>         0.0948
      2 C2          2.4642    0.2945    0.4126 C.ar      1 <0>        -0.2269
      3 C3          2.6219    1.1220   -0.6818 C.ar      1 <0>         0.2481
      4 N1          1.6225    1.3381   -1.5162 N.ar      1 <0>        -0.5194
      5 C4          0.4372    0.7752   -1.3406 C.ar      1 <0>         0.5044
      6 C5          0.2076   -0.0701   -0.2596 C.ar      1 <0>        -0.8019
      7 S1         -1.3715   -0.8176   -0.0304 S.o2      1 <0>         2.6927
      8 O1         -1.2645   -1.6490    1.1170 O.2       1 <0>        -0.9327
      9 O2         -2.3323    0.2247   -0.1290 O.2       1 <0>        -0.9308
     10 N2         -1.6294   -1.8227   -1.3209 N.pl3     1 <0>        -1.1154
     11 C6         -0.7660   -2.9885   -1.5254 C.3       1 <0>         0.1447
     12 H1          0.1853   -2.8574   -1.0097 H         1 <0>         0.1274
     13 C7         -1.4734   -4.2854   -1.0512 C.3       1 <0>        -0.1621
     14 C8         -0.7699   -5.3597   -1.9165 C.3       1 <0>        -0.0090
     15 N3         -0.5490   -4.7116   -3.2277 N.4       1 <0>        -0.3915
     16 C9         -0.5409   -3.2436   -3.0289 C.3       1 <0>         0.0136
     17 H2         -1.3220   -2.7688   -3.6227 H         1 <0>         0.1498
     18 C10         0.8575   -2.7315   -3.4273 C.3       1 <0>        -0.1374
     19 C11         1.3703   -3.8355   -4.3892 C.3       1 <0>        -0.1405
     20 C12         0.7781   -5.1168   -3.7405 C.3       1 <0>        -0.0120
     21 N4         -0.5877    1.0314   -2.2446 N.pl3     1 <0>        -0.5545
     22 N5         -0.4117    1.9587   -3.2320 N.3       1 <0>        -0.5924
     23 Br1         3.9054   -0.0043    1.5999 Br        1 <0>        -0.0119
     24 H3          1.0876   -0.9706    1.4785 H         1 <0>         0.1660
     25 H4          3.5751    1.5985   -0.8568 H         1 <0>         0.1802
     26 H5         -2.3521   -1.6396   -1.9415 H         1 <0>         0.4241
     27 H6         -1.2962   -4.4612    0.0099 H         1 <0>         0.1324
     28 H7         -2.5413   -4.2487   -1.2662 H         1 <0>         0.1101
     29 H8          0.1827   -5.6426   -1.4685 H         1 <0>         0.1386
     30 H9         -1.4107   -6.2342   -2.0294 H         1 <0>         0.1419
     31 H10         0.7852   -1.7738   -3.9428 H         1 <0>         0.1117
     32 H11         1.5028   -2.6520   -2.5524 H         1 <0>         0.1022
     33 H12         0.9755   -3.6914   -5.3949 H         1 <0>         0.1001
     34 H13         2.4598   -3.8687   -4.4002 H         1 <0>         0.1200
     35 H14         1.4154   -5.4491   -2.9210 H         1 <0>         0.1356
     36 H15         0.6718   -5.9074   -4.4833 H         1 <0>         0.1386
     37 H16        -1.4278    0.5515   -2.1741 H         1 <0>         0.4061
     38 H17         0.4000    1.7422   -3.7909 H         1 <0>         0.3552
     39 H18        -1.2369    2.0354   -3.8074 H         1 <0>         0.3673
     40 H19        -1.2728   -4.9796   -3.8777 H         1 <0>         0.4327
@<TRIPOS>BOND
     1    1    6 ar
     2    1    2 ar
     3    1   24 1
     4    2    3 ar
     5    2   23 1
     6    3    4 ar
     7    3   25 1
     8    4    5 ar
     9    5    6 ar
    10    5   21 1
    11    6    7 1
    12    7    8 2
    13    7    9 2
    14    7   10 1
    15   10   11 1
    16   10   26 1
    17   11   12 1
    18   11   16 1
    19   11   13 1
    20   13   14 1
    21   13   27 1
    22   13   28 1
    23   14   15 1
    24   14   29 1
    25   14   30 1
    26   15   20 1
    27   15   16 1
    28   15   40 1
    29   16   17 1
    30   16   18 1
    31   18   19 1
    32   18   31 1
    33   18   32 1
    34   19   20 1
    35   19   33 1
    36   19   34 1
    37   20   35 1
    38   20   36 1
    39   21   22 1
    40   21   37 1
    41   22   38 1
    42   22   39 1
@<TRIPOS>MOLECULE
ZINC63084130
   43    45     0     0     0
SMALL
USER_CHARGES

@<TRIPOS>ATOM
      1 C1         -0.0178    1.4608    0.0101 C.3       1 <0>         0.1024
      2 N1          0.0021   -0.0041    0.0020 N.pl3     1 <0>        -0.3652
      3 C2          0.0078   -0.7968   -1.1069 C.ar      1 <0>         0.3664
      4 C3          0.0280   -2.1285   -0.6482 C.ar      1 <0>        -0.3147
      5 C4          0.0337   -2.0797    0.7626 C.2       1 <0>         0.1047
      6 N2          0.0245   -0.8308    1.1324 N.2       1 <0>        -0.2307
      7 C5          0.0377   -3.1630   -1.6035 C.ar      1 <0>         0.5321
      8 N3          0.0274   -2.8338   -2.8907 N.ar      1 <0>        -0.5830
      9 C6          0.0085   -1.5694   -3.2735 C.ar      1 <0>         0.3495
     10 N4         -0.0008   -0.5696   -2.4194 N.ar      1 <0>        -0.5543
     11 C7         -0.0019   -1.2605   -4.7485 C.3       1 <0>         0.0792
     12 N5         -1.3901   -1.1791   -5.2220 N.4       1 <0>        -0.3796
     13 C8         -2.0606   -0.0453   -4.5745 C.3       1 <0>        -0.0051
     14 C9         -3.5293   -0.0044   -5.0022 C.3       1 <0>        -0.1401
     15 C10        -3.6081    0.1547   -6.5233 C.3       1 <0>        -0.1010
     16 C11        -2.8420   -0.9932   -7.1871 C.3       1 <0>        -0.1374
     17 C12        -1.3988   -0.9974   -6.6785 C.3       1 <0>        -0.0048
     18 C13        -5.0720    0.1167   -6.9665 C.3       1 <0>         0.0785
     19 O1         -5.1522    0.3812   -8.3686 O.3       1 <0>        -0.5735
     20 N6          0.0579   -4.4872   -1.2121 N.pl3     1 <0>        -0.5285
     21 N7          0.0671   -5.4775   -2.1529 N.3       1 <0>        -0.5970
     22 H1          1.0048    1.8381    0.0023 H         1 <0>         0.0830
     23 H2         -0.5450    1.8219   -0.8730 H         1 <0>         0.0944
     24 H3         -0.5280    1.8123    0.9069 H         1 <0>         0.0995
     25 H4          0.0480   -2.9337    1.4237 H         1 <0>         0.2017
     26 H5          0.4982   -0.3080   -4.9238 H         1 <0>         0.1538
     27 H6          0.5206   -2.0500   -5.2887 H         1 <0>         0.1572
     28 H7         -2.0009   -0.1583   -3.4921 H         1 <0>         0.1296
     29 H8         -1.5708    0.8827   -4.8696 H         1 <0>         0.1344
     30 H9         -4.0202   -0.9318   -4.7074 H         1 <0>         0.0878
     31 H10        -4.0249    0.8392   -4.5218 H         1 <0>         0.1132
     32 H11        -3.1627    1.1062   -6.8138 H         1 <0>         0.0979
     33 H12        -3.3187   -1.9411   -6.9376 H         1 <0>         0.0871
     34 H13        -2.8464   -0.8563   -8.2685 H         1 <0>         0.1209
     35 H14        -0.9231   -0.0492   -6.9287 H         1 <0>         0.1324
     36 H15        -0.8505   -1.8134   -7.1493 H         1 <0>         0.1356
     37 H16        -5.4892   -0.8685   -6.7582 H         1 <0>         0.0515
     38 H17        -5.6365    0.8730   -6.4212 H         1 <0>         0.0556
     39 H18        -6.0532    0.3729   -8.7195 H         1 <0>         0.3927
     40 H19         0.0656   -4.7142   -0.2690 H         1 <0>         0.4233
     41 H20         0.8439   -5.3665   -2.7872 H         1 <0>         0.3541
     42 H21         0.0818   -6.3884   -1.7191 H         1 <0>         0.3705
     43 H22        -1.8749   -2.0324   -4.9876 H         1 <0>         0.4262
@<TRIPOS>BOND
     1    1    2 1
     2    1   22 1
     3    1   23 1
     4    1   24 1
     5    2    6 1
     6    2    3 1
     7    3   10 ar
     8    3    4 ar
     9    4    5 1
    10    4    7 ar
    11    5    6 2
    12    5   25 1
    13    7    8 ar
    14    7   20 1
    15    8    9 ar
    16    9   10 ar
    17    9   11 1
    18   11   12 1
    19   11   26 1
    20   11   27 1
    21   12   17 1
    22   12   13 1
    23   12   43 1
    24   13   14 1
    25   13   28 1
    26   13   29 1
    27   14   15 1
    28   14   30 1
    29   14   31 1
    30   15   16 1
    31   15   18 1
    32   15   32 1
    33   16   17 1
    34   16   33 1
    35   16   34 1
    36   17   35 1
    37   17   36 1
    38   18   19 1
    39   18   37 1
    40   18   38 1
    41   19   39 1
    42   20   21 1
    43   20   40 1
    44   21   41 1
    45   21   42 1
@<TRIPOS>MOLECULE
ZINC09059099
   35    37     0     0     0
SMALL
USER_CHARGES
3-(2-fluorophenyl)-6-hydroxy-5-[(4-hydroxyphenyl)methylene]pyrimidine-2,4-dione
@<TRIPOS>ATOM
      1 C1          3.5881    0.9927   -3.8211 C.ar      1 <0>        -0.1194
      2 C2          4.4899    0.3449   -2.9969 C.ar      1 <0>        -0.0755
      3 C3          4.2680    0.2882   -1.6335 C.ar      1 <0>        -0.1461
      4 C4          3.1450    0.8850   -1.0892 C.ar      1 <0>         0.1210
      5 C5          2.2343    1.5317   -1.9169 C.ar      1 <0>         0.0923
      6 C6          2.4616    1.5859   -3.2850 C.ar      1 <0>        -0.0673
      7 N1          1.0916    2.1329   -1.3701 N.am      1 <0>        -0.5374
      8 C7          1.1456    3.4222   -0.9721 C.2       1 <0>         0.5674
      9 O1          2.1691    4.0713   -1.0800 O.2       1 <0>        -0.4595
     10 C8         -0.0789    4.0176   -0.4013 C.2       1 <0>        -0.2614
     11 C9         -0.1105    5.3337    0.0313 C.2       1 <0>         0.1460
     12 C10         1.1299    6.0993    0.1334 C.ar      1 <0>        -0.1428
     13 C11         2.2625    5.5295    0.7371 C.ar      1 <0>        -0.0043
     14 C12         3.4197    6.2484    0.8250 C.ar      1 <0>        -0.1575
     15 C13         3.4754    7.5472    0.3273 C.ar      1 <0>         0.1496
     16 C14         2.3547    8.1198   -0.2676 C.ar      1 <0>        -0.1629
     17 C15         1.1929    7.4099   -0.3666 C.ar      1 <0>        -0.0507
     18 O2          4.6267    8.2577    0.4220 O.3       1 <0>        -0.4972
     19 C16        -1.2643    3.1504   -0.3130 C.2       1 <0>         0.4940
     20 N2         -1.1685    1.9060   -0.7489 N.2       1 <0>        -0.6075
     21 C17        -0.0365    1.4180   -1.2506 C.2       1 <0>         0.6822
     22 O3         -0.0261    0.2593   -1.6265 O.2       1 <0>        -0.4839
     23 O4         -2.4243    3.6163    0.1957 O.3       1 <0>        -0.4335
     24 F1          2.9308    0.8346    0.2437 F         1 <0>        -0.1325
     25 H1          3.7649    1.0353   -4.8857 H         1 <0>         0.1399
     26 H2          5.3698   -0.1175   -3.4192 H         1 <0>         0.1415
     27 H3          4.9744   -0.2181   -0.9923 H         1 <0>         0.1449
     28 H4          1.7584    2.0917   -3.9300 H         1 <0>         0.1341
     29 H5         -1.0520    5.7937    0.2930 H         1 <0>         0.1674
     30 H6          2.2193    4.5235    1.1277 H         1 <0>         0.1236
     31 H7          4.2927    5.8100    1.2854 H         1 <0>         0.1343
     32 H8          2.4047    9.1278   -0.6521 H         1 <0>         0.1365
     33 H9          0.3242    7.8552   -0.8287 H         1 <0>         0.1358
     34 H10         4.7032    8.7760    1.2348 H         1 <0>         0.3976
     35 H11        -3.1386    2.9645    0.2074 H         1 <0>         0.4311
@<TRIPOS>BOND
     1    1    6 ar
     2    1    2 ar
     3    1   25 1
     4    2    3 ar
     5    2   26 1
     6    3    4 ar
     7    3   27 1
     8    4    5 ar
     9    4   24 1
    10    5    6 ar
    11    5    7 1
    12    6   28 1
    13    7   21 am
    14    7    8 am
    15    8    9 2
    16    8   10 1
    17   10   11 2
    18   10   19 1
    19   11   12 1
    20   11   29 1
    21   12   17 ar
    22   12   13 ar
    23   13   14 ar
    24   13   30 1
    25   14   15 ar
    26   14   31 1
    27   15   16 ar
    28   15   18 1
    29   16   17 ar
    30   16   32 1
    31   17   33 1
    32   18   34 1
    33   19   20 2
    34   19   23 1
    35   20   21 1
    36   21   22 2
    37   23   35 1
@<TRIPOS>MOLECULE
ZINC38970867
   37    40     0     0     0
SMALL
USER_CHARGES

@<TRIPOS>ATOM
      1 C1         -0.0184    1.5028    0.0103 C.3       1 <0>        -0.0920
      2 C2          0.0021   -0.0041    0.0020 C.2       1 <0>         0.0739
      3 N1          0.0038   -0.5562   -1.1333 N.2       1 <0>        -0.1769
      4 N2         -0.0210   -1.9287   -1.3400 N.pl3     1 <0>        -0.5601
      5 C3         -0.4597   -2.6874   -2.5190 C.3       1 <0>         0.3723
      6 H1          0.3938   -2.9742   -3.1333 H         1 <0>         0.1200
      7 N3         -1.1044   -3.8892   -1.9162 N.3       1 <0>        -0.4677
      8 N4         -0.2148   -4.2250   -0.7933 N.3       1 <0>        -0.4408
      9 C4          0.3225   -2.9406   -0.3134 C.3       1 <0>         0.2848
     10 H2          1.4005   -2.9984   -0.1631 H         1 <0>         0.1310
     11 S1         -0.5391   -2.4014    1.1985 S.3       1 <0>        -0.3250
     12 C5          0.0239   -0.6740    1.3424 C.3       1 <0>        -0.0558
     13 C6         -1.4682   -1.8801   -3.3388 C.3       1 <0>        -0.0454
     14 H3         -2.3000   -1.5567   -2.7129 H         1 <0>         0.1489
     15 C7         -1.9700   -2.6908   -4.5205 C.2       1 <0>        -0.1363
     16 C8         -1.5810   -1.9736   -5.5922 C.2       1 <0>         0.0108
     17 N5         -0.9198   -0.8534   -5.1988 N.2       1 <0>        -0.1566
     18 N6         -0.8150   -0.7234   -3.9735 N.2       1 <0>        -0.1142
     19 C9         -1.8374   -2.3534   -7.0034 C.ar      1 <0>        -0.0342
     20 C10        -2.5319   -3.5254   -7.2970 C.ar      1 <0>        -0.1003
     21 C11        -2.7680   -3.8736   -8.6115 C.ar      1 <0>        -0.1202
     22 C12        -2.3168   -3.0618   -9.6365 C.ar      1 <0>        -0.1081
     23 C13        -1.6269   -1.8973   -9.3508 C.ar      1 <0>        -0.1209
     24 C14        -1.3897   -1.5366   -8.0399 C.ar      1 <0>        -0.0869
     25 H4          1.0042    1.8801    0.0026 H         1 <0>         0.0812
     26 H5         -0.5455    1.8639   -0.8728 H         1 <0>         0.0829
     27 H6         -0.5286    1.8543    0.9071 H         1 <0>         0.0807
     28 H7         -2.0345   -3.6748   -1.5890 H         1 <0>         0.3286
     29 H8         -0.7203   -4.7016   -0.0616 H         1 <0>         0.3641
     30 H9          1.0396   -0.6551    1.7375 H         1 <0>         0.1106
     31 H10        -0.6365   -0.1374    2.0236 H         1 <0>         0.1315
     32 H11        -2.5120   -3.6248   -4.5053 H         1 <0>         0.1796
     33 H12        -2.8844   -4.1601   -6.4975 H         1 <0>         0.1247
     34 H13        -3.3058   -4.7818   -8.8402 H         1 <0>         0.1280
     35 H14        -2.5034   -3.3383  -10.6637 H         1 <0>         0.1259
     36 H15        -1.2765   -1.2674  -10.1550 H         1 <0>         0.1282
     37 H16        -0.8549   -0.6250   -7.8179 H         1 <0>         0.1341
@<TRIPOS>BOND
     1    1    2 1
     2    1   25 1
     3    1   26 1
     4    1   27 1
     5    2   12 1
     6    2    3 2
     7    3    4 1
     8    4    9 1
     9    4    5 1
    10    5    6 1
    11    5    7 1
    12    5   13 1
    13    7    8 1
    14    7   28 1
    15    8    9 1
    16    8   29 1
    17    9   10 1
    18    9   11 1
    19   11   12 1
    20   12   30 1
    21   12   31 1
    22   13   14 1
    23   13   18 1
    24   13   15 1
    25   15   16 2
    26   15   32 1
    27   16   17 1
    28   16   19 1
    29   17   18 2
    30   19   24 ar
    31   19   20 ar
    32   20   21 ar
    33   20   33 1
    34   21   22 ar
    35   21   34 1
    36   22   23 ar
    37   22   35 1
    38   23   24 ar
    39   23   36 1
    40   24   37 1
@<TRIPOS>MOLECULE
ZINC42349921
   44    46     0     0     0
SMALL
USER_CHARGES

@<TRIPOS>ATOM
      1 C1         -0.3394    1.4751    0.0338 C.3       1 <0>         0.0684
      2 N1         -0.4909    0.0180    0.0384 N.pl3     1 <0>        -0.5070
      3 C2         -0.7196   -0.7690   -1.0545 C.2       1 <0>         0.4876
      4 N2         -0.7943   -2.0130   -0.6498 N.2       1 <0>        -0.3672
      5 N3         -0.6093   -2.0285    0.7389 N.2       1 <0>        -0.3069
      6 C3         -0.4224   -0.7933    1.1362 C.2       1 <0>         0.1832
      7 S1         -0.1368   -0.2706    2.7945 S.3       1 <0>         0.0719
      8 C4         -0.1639   -1.8115    3.7512 C.3       1 <0>        -0.1455
      9 C5          0.0713   -1.5029    5.2074 C.2       1 <0>         0.5254
     10 O1          0.2405   -0.3563    5.5646 O.2       1 <0>        -0.4966
     11 N4          0.0935   -2.5010    6.1128 N.am      1 <0>        -0.5941
     12 C6          0.0050   -3.9052    5.6862 C.3       1 <0>         0.1023
     13 C7         -1.1326   -4.5852    6.4537 C.3       1 <0>        -0.1396
     14 C8         -0.9222   -4.3923    7.9574 C.3       1 <0>        -0.1180
     15 C9         -0.9476   -2.8941    8.2836 C.3       1 <0>        -0.0992
     16 H1         -0.8336   -2.7503    9.3581 H         1 <0>         0.0828
     17 C10         0.2128   -2.2114    7.5464 C.3       1 <0>         0.1559
     18 H2          1.1595   -2.6052    7.9160 H         1 <0>         0.0728
     19 C11         0.1809   -0.7046    7.7828 C.3       1 <0>        -0.1144
     20 C12        -1.1542   -0.1304    7.3056 C.3       1 <0>        -0.1212
     21 C13        -2.2943   -0.7955    8.0804 C.3       1 <0>        -0.1277
     22 C14        -2.2872   -2.3127    7.8250 C.3       1 <0>        -0.1121
     23 N5         -0.8503   -0.3278   -2.3651 N.pl3     1 <0>        -0.8289
     24 H3          0.7105    1.7308   -0.1087 H         1 <0>         0.0821
     25 H4         -0.9301    1.8992   -0.7782 H         1 <0>         0.0874
     26 H5         -0.6860    1.8795    0.9848 H         1 <0>         0.0954
     27 H6         -1.1339   -2.2948    3.6343 H         1 <0>         0.1228
     28 H7          0.6197   -2.4774    3.3898 H         1 <0>         0.1238
     29 H8         -0.1986   -3.9497    4.6163 H         1 <0>         0.0881
     30 H9          0.9454   -4.4124    5.9021 H         1 <0>         0.0756
     31 H10        -2.0843   -4.1421    6.1604 H         1 <0>         0.0733
     32 H11        -1.1414   -5.6502    6.2219 H         1 <0>         0.0779
     33 H12        -1.7185   -4.8974    8.5041 H         1 <0>         0.0681
     34 H13         0.0415   -4.8116    8.2468 H         1 <0>         0.0653
     35 H14         0.3021   -0.5025    8.8470 H         1 <0>         0.0548
     36 H15         0.9950   -0.2343    7.2314 H         1 <0>         0.0937
     37 H16        -1.1723    0.9450    7.4829 H         1 <0>         0.0560
     38 H17        -1.2749   -0.3266    6.2402 H         1 <0>         0.0913
     39 H18        -2.1653   -0.6117    9.1470 H         1 <0>         0.0560
     40 H19        -3.2477   -0.3816    7.7518 H         1 <0>         0.0566
     41 H20        -2.4155   -2.4954    6.7581 H         1 <0>         0.0629
     42 H21        -3.0975   -2.7922    8.3741 H         1 <0>         0.0614
     43 H22        -0.7796    0.6181   -2.5677 H         1 <0>         0.4090
     44 H23        -1.0123   -0.9657   -3.0776 H         1 <0>         0.4266
@<TRIPOS>BOND
     1    1    2 1
     2    1   24 1
     3    1   25 1
     4    1   26 1
     5    2    6 1
     6    2    3 1
     7    3    4 2
     8    3   23 1
     9    4    5 1
    10    5    6 2
    11    6    7 1
    12    7    8 1
    13    8    9 1
    14    8   27 1
    15    8   28 1
    16    9   10 2
    17    9   11 am
    18   11   17 1
    19   11   12 1
    20   12   13 1
    21   12   29 1
    22   12   30 1
    23   13   14 1
    24   13   31 1
    25   13   32 1
    26   14   15 1
    27   14   33 1
    28   14   34 1
    29   15   16 1
    30   15   22 1
    31   15   17 1
    32   17   18 1
    33   17   19 1
    34   19   20 1
    35   19   35 1
    36   19   36 1
    37   20   21 1
    38   20   37 1
    39   20   38 1
    40   21   22 1
    41   21   39 1
    42   21   40 1
    43   22   41 1
    44   22   42 1
    45   23   43 1
    46   23   44 1
@<TRIPOS>MOLECULE
ZINC61824173
   38    40     0     0     0
SMALL
USER_CHARGES

@<TRIPOS>ATOM
      1 C1         -0.0187    1.5258    0.0104 C.3       1 <0>        -0.1480
      2 C2          0.0021   -0.0041    0.0020 C.3       1 <0>        -0.0649
      3 C3          0.7170   -0.4974   -1.2580 C.3       1 <0>        -0.1213
      4 C4          2.1427    0.0625   -1.2837 C.3       1 <0>         0.1151
      5 N1          2.8150   -0.2983   -0.0281 N.pl3     1 <0>        -0.9940
      6 C5          2.1683    0.0489    1.2447 C.3       1 <0>         0.1165
      7 C6          0.7423   -0.5108    1.2420 C.3       1 <0>        -0.1208
      8 S1          4.2738   -1.0819   -0.0471 S.o2      1 <0>         2.7242
      9 O1          4.3836   -1.7658    1.1937 O.2       1 <0>        -0.9546
     10 O2          4.3581   -1.7529   -1.2969 O.2       1 <0>        -0.9494
     11 C7          5.5292    0.1544   -0.0535 C.2       1 <0>        -0.6767
     12 C8          6.0818    0.7234   -1.1446 C.2       1 <0>         0.4459
     13 N2          6.9983    1.6172   -0.7357 N.2       1 <0>        -0.4869
     14 C9          7.0341    1.6230    0.5669 C.2       1 <0>         0.2453
     15 N3          6.1292    0.7279    1.0711 N.pl3     1 <0>        -0.3833
     16 C10         6.0484    0.6270    2.4427 C.2       1 <0>         0.0338
     17 C11         6.8208    1.3758    3.2286 C.2       1 <0>        -0.1828
     18 S2          7.7654    2.3097    2.0345 S.3       1 <0>         0.1615
     19 N4          5.7554    0.4320   -2.4782 N.pl3     1 <0>        -0.8321
     20 C12        -1.4334   -0.5334    0.0136 C.3       1 <0>        -0.1425
     21 H1          1.0039    1.9031    0.0027 H         1 <0>         0.0590
     22 H2         -0.5459    1.8868   -0.8726 H         1 <0>         0.0567
     23 H3         -0.5289    1.8773    0.9072 H         1 <0>         0.0563
     24 H4          0.7539   -1.5867   -1.2525 H         1 <0>         0.0713
     25 H5          0.1760   -0.1557   -2.1405 H         1 <0>         0.0790
     26 H6          2.6877   -0.3642   -2.1257 H         1 <0>         0.0905
     27 H7          2.1075    1.1476   -1.3806 H         1 <0>         0.0740
     28 H8          2.7303   -0.3867    2.0709 H         1 <0>         0.0899
     29 H9          2.1352    1.1329    1.3539 H         1 <0>         0.0724
     30 H10         0.2194   -0.1786    2.1388 H         1 <0>         0.0785
     31 H11         0.7790   -1.6000    1.2240 H         1 <0>         0.0709
     32 H12         5.3501   -0.0674    2.8862 H         1 <0>         0.1861
     33 H13         6.8681    1.4057    4.3071 H         1 <0>         0.2245
     34 H14         5.0769   -0.2320   -2.6775 H         1 <0>         0.4218
     35 H15         6.2083    0.8945   -3.2005 H         1 <0>         0.4148
     36 H16        -1.9609   -0.1722   -0.8692 H         1 <0>         0.0569
     37 H17        -1.4188   -1.6233    0.0076 H         1 <0>         0.0559
     38 H18        -1.9431   -0.1817    0.9106 H         1 <0>         0.0567
@<TRIPOS>BOND
     1    1    2 1
     2    1   21 1
     3    1   22 1
     4    1   23 1
     5    2    7 1
     6    2    3 1
     7    2   20 1
     8    3    4 1
     9    3   24 1
    10    3   25 1
    11    4    5 1
    12    4   26 1
    13    4   27 1
    14    5    6 1
    15    5    8 1
    16    6    7 1
    17    6   28 1
    18    6   29 1
    19    7   30 1
    20    7   31 1
    21    8    9 2
    22    8   10 2
    23    8   11 1
    24   11   15 1
    25   11   12 2
    26   12   13 1
    27   12   19 1
    28   13   14 2
    29   14   18 1
    30   14   15 1
    31   15   16 1
    32   16   17 2
    33   16   32 1
    34   17   18 1
    35   17   33 1
    36   19   34 1
    37   19   35 1
    38   20   36 1
    39   20   37 1
    40   20   38 1
@<TRIPOS>MOLECULE
ZINC65168142
   44    46     0     0     0
SMALL
USER_CHARGES

@<TRIPOS>ATOM
      1 C1          0.5022   -0.1580    2.2767 C.3       1 <0>        -0.1497
      2 C2          0.5389   -1.4760    1.5005 C.3       1 <0>        -0.0376
      3 C3          1.5856   -2.3813    2.0970 C.2       1 <0>        -0.3371
      4 C4          2.9351   -2.4367    1.7245 C.2       1 <0>         0.1475
      5 N1          3.5257   -3.3369    2.4620 N.2       1 <0>        -0.3247
      6 O1          2.5607   -3.8904    3.3382 O.3       1 <0>        -0.1131
      7 C5          1.3871   -3.2829    3.0946 C.2       1 <0>         0.3521
      8 N2          0.1908   -3.5326    3.7411 N.pl3     1 <0>        -0.8174
      9 C6          3.5915   -1.6012    0.6558 C.3       1 <0>        -0.0161
     10 C7          4.1718   -2.5179   -0.4235 C.3       1 <0>        -0.1264
     11 C8          4.8077   -1.6641   -1.5251 C.3       1 <0>         0.1158
     12 N3          5.7878   -0.7564   -0.9135 N.am      1 <0>        -0.6017
     13 C9          5.3566    0.1054    0.1956 C.3       1 <0>         0.0917
     14 C10         4.7146   -0.7682    1.2780 C.3       1 <0>        -0.1266
     15 C11         7.0584   -0.7153   -1.3610 C.2       1 <0>         0.5917
     16 O2          7.4460   -1.5390   -2.1687 O.2       1 <0>        -0.5442
     17 C12         7.9742    0.3221   -0.8746 C.2       1 <0>        -0.0515
     18 C13         7.6198    1.5768   -0.4262 C.2       1 <0>        -0.1478
     19 C14         8.8005    2.2312   -0.0612 C.2       1 <0>        -0.2064
     20 C15         9.8325    1.3837   -0.2879 C.2       1 <0>         0.0154
     21 N4          9.3433    0.2182   -0.7771 N.pl3     1 <0>        -0.4118
     22 C16        10.1394   -0.9557   -1.1437 C.3       1 <0>         0.0721
     23 H1          1.4773    0.3257    2.2177 H         1 <0>         0.0556
     24 H2         -0.2549    0.4968    1.8452 H         1 <0>         0.0566
     25 H3          0.2582   -0.3575    3.3201 H         1 <0>         0.0501
     26 H4         -0.4361   -1.9596    1.5595 H         1 <0>         0.0618
     27 H5          0.7830   -1.2765    0.4571 H         1 <0>         0.0720
     28 H6         -0.6073   -3.0411    3.4912 H         1 <0>         0.4250
     29 H7          0.1496   -4.1992    4.4445 H         1 <0>         0.4115
     30 H8          2.8518   -0.9370    0.2087 H         1 <0>         0.0992
     31 H9          4.9295   -3.1653    0.0179 H         1 <0>         0.0762
     32 H10         3.3752   -3.1275   -0.8499 H         1 <0>         0.0816
     33 H11         5.3085   -2.3109   -2.2455 H         1 <0>         0.0986
     34 H12         4.0353   -1.0825   -2.0283 H         1 <0>         0.0742
     35 H13         6.2196    0.6261    0.6106 H         1 <0>         0.1115
     36 H14         4.6290    0.8313   -0.1672 H         1 <0>         0.0756
     37 H15         4.3043   -0.1325    2.0626 H         1 <0>         0.0821
     38 H16         5.4671   -1.4322    1.7034 H         1 <0>         0.0756
     39 H17         6.6190    1.9787   -0.3682 H         1 <0>         0.1495
     40 H18         8.8761    3.2344    0.3315 H         1 <0>         0.1444
     41 H19        10.8747    1.6000   -0.1051 H         1 <0>         0.1699
     42 H20        10.3511   -0.9317   -2.2127 H         1 <0>         0.0810
     43 H21        11.0767   -0.9472   -0.5874 H         1 <0>         0.0864
     44 H22         9.5826   -1.8616   -0.9038 H         1 <0>         0.0872
@<TRIPOS>BOND
     1    1    2 1
     2    1   23 1
     3    1   24 1
     4    1   25 1
     5    2    3 1
     6    2   26 1
     7    2   27 1
     8    3    7 2
     9    3    4 1
    10    4    5 2
    11    4    9 1
    12    5    6 1
    13    6    7 1
    14    7    8 1
    15    8   28 1
    16    8   29 1
    17    9   14 1
    18    9   10 1
    19    9   30 1
    20   10   11 1
    21   10   31 1
    22   10   32 1
    23   11   12 1
    24   11   33 1
    25   11   34 1
    26   12   13 1
    27   12   15 am
    28   13   14 1
    29   13   35 1
    30   13   36 1
    31   14   37 1
    32   14   38 1
    33   15   16 2
    34   15   17 1
    35   17   21 1
    36   17   18 2
    37   18   19 1
    38   18   39 1
    39   19   20 2
    40   19   40 1
    41   20   21 1
    42   20   41 1
    43   21   22 1
    44   22   42 1
    45   22   43 1
    46   22   44 1
@<TRIPOS>MOLECULE
ZINC12653619
   45    48     0     0     0
SMALL
USER_CHARGES
(1S,5R)-7-[(3R)-5-bromo-3-hydroxy-2-oxo-indolin-3-yl]-1,5-dimethyl-3,7-diazabicyclo[3.3.1]nonan-9-one
@<TRIPOS>ATOM
      1 C1         -5.0711    1.9167   -2.7798 C.3       1 <0>        -0.1357
      2 C2         -4.4520    3.3057   -2.6124 C.3       1 <0>        -0.1108
      3 C3         -3.4113    3.5975   -3.7060 C.3       1 <0>         0.0185
      4 C4         -3.8830    6.0028   -3.6503 C.3       1 <0>         0.0202
      5 C5         -4.9448    5.8162   -2.5539 C.3       1 <0>        -0.1098
      6 C6         -5.5039    4.4057   -2.7067 C.2       1 <0>         0.3474
      7 O1         -6.6764    4.1797   -2.8870 O.2       1 <0>        -0.3803
      8 C7         -4.2334    5.8620   -1.1916 C.3       1 <0>         0.0337
      9 N1         -3.1994    4.8215   -1.1500 N.3       1 <0>        -0.5222
     10 C8         -3.7645    3.4706   -1.2470 C.3       1 <0>         0.0338
     11 C9         -2.3636    4.9576    0.0504 C.3       1 <0>         0.3327
     12 C10        -1.6726    6.3017    0.0649 C.ar      1 <0>        -0.1982
     13 C11        -0.7737    6.9014   -0.7882 C.ar      1 <0>        -0.0128
     14 C12        -0.2986    8.1717   -0.5086 C.ar      1 <0>        -0.1173
     15 C13        -0.7384    8.8372    0.6221 C.ar      1 <0>        -0.0287
     16 C14        -1.6430    8.2400    1.4750 C.ar      1 <0>        -0.1235
     17 C15        -2.1214    6.9597    1.2029 C.ar      1 <0>         0.1738
     18 N2         -3.0255    6.1564    1.8997 N.am      1 <0>        -0.6538
     19 C16        -3.2233    4.9721    1.2964 C.2       1 <0>         0.4782
     20 O2         -3.9532    4.0820    1.6786 O.2       1 <0>        -0.4530
     21 Br1         0.9418    8.9976   -1.6728 Br        1 <0>        -0.0176
     22 O3         -1.4062    3.8987    0.1150 O.3       1 <0>        -0.5176
     23 C17        -6.0463    6.8736   -2.6504 C.3       1 <0>        -0.1368
     24 H1         -5.5527    1.8487   -3.7553 H         1 <0>         0.0819
     25 H2         -4.2904    1.1596   -2.7065 H         1 <0>         0.0848
     26 H3         -5.8114    1.7521   -1.9969 H         1 <0>         0.0834
     27 H4         -2.6074    2.8637   -3.6484 H         1 <0>         0.1425
     28 H5         -3.8866    3.5406   -4.6852 H         1 <0>         0.1298
     29 H6         -4.3528    5.9186   -4.6302 H         1 <0>         0.1319
     30 H7         -3.4242    6.9863   -3.5490 H         1 <0>         0.1424
     31 H8         -4.9581    5.6869   -0.3965 H         1 <0>         0.0814
     32 H9         -3.7716    6.8398   -1.0542 H         1 <0>         0.1200
     33 H10        -2.9666    2.7344   -1.1499 H         1 <0>         0.1312
     34 H11        -4.4951    3.3237   -0.4515 H         1 <0>         0.0926
     35 H12        -0.4365    6.3803   -1.6719 H         1 <0>         0.1397
     36 H13        -0.3711    9.8296    0.8381 H         1 <0>         0.1535
     37 H14        -1.9816    8.7658    2.3555 H         1 <0>         0.1489
     38 H15        -3.4609    6.4225    2.7246 H         1 <0>         0.4275
     39 H16        -0.8082    3.9548    0.8728 H         1 <0>         0.4142
     40 H17        -5.6108    7.8647   -2.5231 H         1 <0>         0.0835
     41 H18        -6.5262    6.8103   -3.6270 H         1 <0>         0.0848
     42 H19        -6.7868    6.6992   -1.8698 H         1 <0>         0.0828
     43 N3         -2.8402    4.9473   -3.5000 N.4       1 <0>        -0.5296
     44 H20        -2.0997    5.1069   -4.1930 H         1 <0>         0.4246
     45 H21        -2.4422    5.0018   -2.5550 H         1 <0>         0.4278
@<TRIPOS>BOND
     1    1    2 1
     2    1   24 1
     3    1   25 1
     4    1   26 1
     5    2    6 1
     6    2   10 1
     7    2    3 1
     8    3   27 1
     9    3   28 1
    10    3   43 1
    11    4    5 1
    12    4   29 1
    13    4   30 1
    14    4   43 1
    15    5    6 1
    16    5    8 1
    17    5   23 1
    18    6    7 2
    19    8    9 1
    20    8   31 1
    21    8   32 1
    22    9   10 1
    23    9   11 1
    24   10   33 1
    25   10   34 1
    26   11   19 1
    27   11   12 1
    28   11   22 1
    29   12   17 ar
    30   12   13 ar
    31   13   14 ar
    32   13   35 1
    33   14   15 ar
    34   14   21 1
    35   15   16 ar
    36   15   36 1
    37   16   17 ar
    38   16   37 1
    39   17   18 1
    40   18   19 am
    41   18   38 1
    42   19   20 2
    43   22   39 1
    44   23   40 1
    45   23   41 1
    46   23   42 1
    47   43   44 1
    48   43   45 1
@<TRIPOS>MOLECULE
ZINC37581826
   37    38     0     0     0
SMALL
USER_CHARGES

@<TRIPOS>ATOM
      1 C1         -0.0184    1.5028    0.0103 C.3       1 <0>        -0.1070
      2 C2          0.0021   -0.0041    0.0020 C.2       1 <0>        -0.1690
      3 C3          0.0057   -0.6959   -1.2216 C.2       1 <0>         0.0016
      4 C4          0.0241   -2.0544   -1.2259 C.2       1 <0>        -0.1667
      5 C5          0.0394   -2.7502    0.0061 C.2       1 <0>         0.5179
      6 N1          0.0354   -2.0436    1.1846 N.pl3     1 <0>        -0.6186
      7 C6          0.0224   -0.6809    1.1694 C.2       1 <0>         0.1284
      8 N2          0.0569   -4.0669    0.0231 N.2       1 <0>        -1.0157
      9 S1          0.0748   -4.8761    1.4678 S.o2      1 <0>         2.6114
     10 O1          1.3193   -4.5775    2.0852 O.2       1 <0>        -0.9805
     11 O2         -1.1711   -4.6105    2.0975 O.2       1 <0>        -0.9856
     12 C7          0.0958   -6.5991    1.0996 C.ar      1 <0>        -0.6048
     13 C8          1.1877   -7.3675    1.4485 C.ar      1 <0>        -0.0207
     14 C9          1.2057   -8.7202    1.1602 C.ar      1 <0>        -0.1090
     15 C10         0.1305   -9.3119    0.5213 C.ar      1 <0>        -0.0637
     16 C11        -0.9671   -8.5549    0.1672 C.ar      1 <0>        -0.1033
     17 C12        -0.9939   -7.1906    0.4600 C.ar      1 <0>         0.0721
     18 C13        -2.1326   -6.4002    0.1005 C.1       1 <0>        -0.0155
     19 C14        -3.0661   -5.7522   -0.1942 C.1       1 <0>        -0.2405
     20 C15        -4.2366   -4.9398   -0.5638 C.3       1 <0>         0.1417
     21 N3         -5.2374   -5.7924   -1.2191 N.4       1 <0>        -0.6370
     22 H1          1.0042    1.8801    0.0026 H         1 <0>         0.0790
     23 H2         -0.5455    1.8639   -0.8728 H         1 <0>         0.0768
     24 H3         -0.5286    1.8543    0.9071 H         1 <0>         0.0733
     25 H4         -0.0065   -0.1503   -2.1536 H         1 <0>         0.1534
     26 H5          0.0267   -2.5973   -2.1595 H         1 <0>         0.1656
     27 H6          0.0238   -0.1366    2.1021 H         1 <0>         0.1786
     28 H7          2.0301   -6.9116    1.9474 H         1 <0>         0.1548
     29 H8          2.0629   -9.3170    1.4347 H         1 <0>         0.1477
     30 H9          0.1507  -10.3686    0.2989 H         1 <0>         0.1468
     31 H10        -1.8055   -9.0178   -0.3321 H         1 <0>         0.1396
     32 H11        -4.6687   -4.4960    0.3332 H         1 <0>         0.1573
     33 H12        -3.9287   -4.1492   -1.2481 H         1 <0>         0.1555
     34 H13        -6.0397   -5.2355   -1.4724 H         1 <0>         0.4444
     35 H14        -4.8374   -6.2031   -2.0494 H         1 <0>         0.4392
     36 H15        -5.5224   -6.5242   -0.5857 H         1 <0>         0.4386
     37 H16         0.0455   -2.5169    2.0312 H         1 <0>         0.4141
@<TRIPOS>BOND
     1    1    2 1
     2    1   22 1
     3    1   23 1
     4    1   24 1
     5    2    7 2
     6    2    3 1
     7    3    4 2
     8    3   25 1
     9    4    5 1
    10    4   26 1
    11    5    6 1
    12    5    8 2
    13    6    7 1
    14    6   37 1
    15    7   27 1
    16    8    9 1
    17    9   10 2
    18    9   11 2
    19    9   12 1
    20   12   17 ar
    21   12   13 ar
    22   13   14 ar
    23   13   28 1
    24   14   15 ar
    25   14   29 1
    26   15   16 ar
    27   15   30 1
    28   16   17 ar
    29   16   31 1
    30   17   18 1
    31   18   19 3
    32   19   20 1
    33   20   21 1
    34   20   32 1
    35   20   33 1
    36   21   34 1
    37   21   35 1
    38   21   36 1
@<TRIPOS>MOLECULE
ZINC41068039
   39    41     0     0     0
SMALL
USER_CHARGES

@<TRIPOS>ATOM
      1 C1         -0.0163    1.3515    0.0095 C.2       1 <0>        -0.0334
      2 C2          1.1867    2.0391    0.0017 C.2       1 <0>         0.1436
      3 C3          2.3465    1.3311   -0.0132 C.2       1 <0>        -0.2329
      4 S1          1.7528   -0.3524   -0.0166 S.3       1 <0>         0.1677
      5 C4          0.0021   -0.0041    0.0020 C.2       1 <0>        -0.7526
      6 S2         -1.3523   -1.1311    0.0094 S.o2      1 <0>         2.7308
      7 O1         -0.8626   -2.3511    0.5489 O.2       1 <0>        -0.9377
      8 O2         -2.4555   -0.4365    0.5749 O.2       1 <0>        -0.9379
      9 N1         -1.7444   -1.4358   -1.5704 N.pl3     1 <0>        -1.1168
     10 C5         -0.7902   -2.1259   -2.4419 C.3       1 <0>         0.1227
     11 C6         -1.5094   -2.6118   -3.7019 C.3       1 <0>        -0.1181
     12 H1         -2.3751   -3.2202   -3.4398 H         1 <0>         0.1187
     13 C7         -1.9290   -1.4163   -4.5877 C.3       1 <0>        -0.1474
     14 C8         -1.6646   -1.8750   -6.0338 C.3       1 <0>        -0.0012
     15 N2         -1.1552   -3.2617   -5.9629 N.4       1 <0>        -0.3663
     16 C9         -0.5401   -3.4025   -4.6161 C.3       1 <0>         0.0018
     17 C10        -0.1467   -3.4849   -7.0074 C.3       1 <0>        -0.0794
     18 C11        -0.4997   -4.4584   -8.1337 C.3       1 <0>        -0.1538
     19 C12         0.5181   -4.8617   -7.0649 C.3       1 <0>        -0.1542
     20 N3          1.2070    3.4468    0.0086 N.pl3     1 <0>        -0.8741
     21 H2         -0.9540    1.8871    0.0258 H         1 <0>         0.1488
     22 H3          3.3640    1.6932   -0.0210 H         1 <0>         0.1931
     23 H4         -2.6058   -1.1573   -1.9188 H         1 <0>         0.4226
     24 H5          0.0088   -1.4393   -2.7216 H         1 <0>         0.0807
     25 H6         -0.3670   -2.9799   -1.9130 H         1 <0>         0.0987
     26 H7         -2.9872   -1.1952   -4.4484 H         1 <0>         0.1094
     27 H8         -1.3245   -0.5404   -4.3522 H         1 <0>         0.1095
     28 H9         -2.5914   -1.8487   -6.6070 H         1 <0>         0.1331
     29 H10        -0.9194   -1.2289   -6.4980 H         1 <0>         0.1319
     30 H11         0.4541   -2.9560   -4.6002 H         1 <0>         0.1401
     31 H12        -0.4974   -4.4498   -4.3169 H         1 <0>         0.1410
     32 H13         0.4650   -2.6196   -7.2630 H         1 <0>         0.1751
     33 H14        -1.4802   -4.9333   -8.0996 H         1 <0>         0.1197
     34 H15        -0.1203   -4.2337   -9.1305 H         1 <0>         0.1334
     35 H16         1.5670   -4.9022   -7.3585 H         1 <0>         0.1336
     36 H17         0.2072   -5.6018   -6.3276 H         1 <0>         0.1194
     37 H18         0.3741    3.9438    0.0189 H         1 <0>         0.4006
     38 H19         2.0539    3.9197    0.0030 H         1 <0>         0.4048
     39 H20        -1.9153   -3.9172   -6.0655 H         1 <0>         0.4250
@<TRIPOS>BOND
     1    1    5 2
     2    1    2 1
     3    1   21 1
     4    2    3 2
     5    2   20 1
     6    3    4 1
     7    3   22 1
     8    4    5 1
     9    5    6 1
    10    6    7 2
    11    6    8 2
    12    6    9 1
    13    9   10 1
    14    9   23 1
    15   10   11 1
    16   10   24 1
    17   10   25 1
    18   11   12 1
    19   11   16 1
    20   11   13 1
    21   13   14 1
    22   13   26 1
    23   13   27 1
    24   14   15 1
    25   14   28 1
    26   14   29 1
    27   15   16 1
    28   15   17 1
    29   15   39 1
    30   16   30 1
    31   16   31 1
    32   17   19 1
    33   17   18 1
    34   17   32 1
    35   18   19 1
    36   18   33 1
    37   18   34 1
    38   19   35 1
    39   19   36 1
    40   20   37 1
    41   20   38 1
@<TRIPOS>MOLECULE
ZINC49974253
   42    43     0     0     0
SMALL
USER_CHARGES

@<TRIPOS>ATOM
      1 C1         -0.0187    1.5258    0.0104 C.3       1 <0>        -0.1833
      2 C2          0.0021   -0.0041    0.0020 C.3       1 <0>         0.0063
      3 H1          0.5293   -0.3651    0.8851 H         1 <0>         0.1710
      4 C3         -1.4117   -0.5257    0.0127 C.2       1 <0>         0.5183
      5 O1         -1.8074   -1.2231   -0.8966 O.2       1 <0>        -0.4504
      6 N1         -2.2363   -0.2169    1.0331 N.am      1 <0>        -0.6746
      7 C4         -3.5007   -0.6834    1.0427 C.2       1 <0>         0.6901
      8 O2         -3.8974   -1.3825    0.1311 O.2       1 <0>        -0.5153
      9 N2         -4.3252   -0.3745    2.0631 N.am      1 <0>        -0.7298
     10 C5         -5.6996   -0.8816    2.0735 C.3       1 <0>         0.0970
     11 N3          0.6897   -0.4778   -1.2066 N.4       1 <0>        -0.4966
     12 C6          2.1002   -0.0703   -1.1590 C.3       1 <0>         0.1886
     13 H2          2.1621    1.0089   -1.0186 H         1 <0>         0.1721
     14 C7          2.7761   -0.4482   -2.4519 C.ar      1 <0>        -0.1524
     15 C8          2.4810   -1.6543   -3.0593 C.ar      1 <0>        -0.1110
     16 C9          3.1010   -2.0009   -4.2452 C.ar      1 <0>        -0.1036
     17 C10         4.0158   -1.1412   -4.8239 C.ar      1 <0>        -0.0842
     18 C11         4.3103    0.0654   -4.2169 C.ar      1 <0>        -0.1068
     19 C12         3.6871    0.4139   -3.0332 C.ar      1 <0>        -0.0796
     20 C13         2.7858   -0.7663   -0.0116 C.2       1 <0>        -0.1026
     21 C14         3.6883   -0.2128    0.8181 C.2       1 <0>        -0.1296
     22 C15         4.0674   -1.2162    1.7392 C.2       1 <0>        -0.2119
     23 C16         3.3740   -2.3229    1.4172 C.2       1 <0>         0.0088
     24 O3          2.5950   -2.0429    0.3595 O.3       1 <0>        -0.1797
     25 H3          1.0039    1.9031    0.0027 H         1 <0>         0.1018
     26 H4         -0.5459    1.8868   -0.8726 H         1 <0>         0.0968
     27 H5         -0.5289    1.8773    0.9072 H         1 <0>         0.1155
     28 H6         -1.9197    0.3412    1.7606 H         1 <0>         0.4179
     29 H7         -4.0086    0.1835    2.7906 H         1 <0>         0.4046
     30 H8         -6.2098   -0.5301    2.9703 H         1 <0>         0.0891
     31 H9         -6.2268   -0.5205    1.1904 H         1 <0>         0.0683
     32 H10        -5.6848   -1.9715    2.0675 H         1 <0>         0.0681
     33 H11         0.6317   -1.4840   -1.2540 H         1 <0>         0.4378
     34 H12         1.7662   -2.3260   -2.6072 H         1 <0>         0.1208
     35 H13         2.8709   -2.9436   -4.7194 H         1 <0>         0.1381
     36 H14         4.5007   -1.4123   -5.7500 H         1 <0>         0.1382
     37 H15         5.0252    0.7369   -4.6688 H         1 <0>         0.1398
     38 H16         3.9143    1.3582   -2.5609 H         1 <0>         0.1361
     39 H17         4.0536    0.8031    0.7864 H         1 <0>         0.1628
     40 H18         4.7778   -1.1138    2.5462 H         1 <0>         0.1647
     41 H19         3.4310   -3.2741    1.9254 H         1 <0>         0.2184
     42 H20         0.2511   -0.0769   -2.0221 H         1 <0>         0.4404
@<TRIPOS>BOND
     1    1    2 1
     2    1   25 1
     3    1   26 1
     4    1   27 1
     5    2    3 1
     6    2    4 1
     7    2   11 1
     8    4    5 2
     9    4    6 am
    10    6    7 am
    11    6   28 1
    12    7    8 2
    13    7    9 am
    14    9   10 1
    15    9   29 1
    16   10   30 1
    17   10   31 1
    18   10   32 1
    19   11   12 1
    20   11   33 1
    21   11   42 1
    22   12   13 1
    23   12   14 1
    24   12   20 1
    25   14   19 ar
    26   14   15 ar
    27   15   16 ar
    28   15   34 1
    29   16   17 ar
    30   16   35 1
    31   17   18 ar
    32   17   36 1
    33   18   19 ar
    34   18   37 1
    35   19   38 1
    36   20   24 1
    37   20   21 2
    38   21   22 1
    39   21   39 1
    40   22   23 2
    41   22   40 1
    42   23   24 1
    43   23   41 1
@<TRIPOS>MOLECULE
ZINC13739339
   37    38     0     0     0
SMALL
USER_CHARGES

@<TRIPOS>ATOM
      1 C1          0.5078    0.4652   -0.3474 C.3       1 <0>        -0.1543
      2 C2          0.2839   -1.0482   -0.3271 C.3       1 <0>        -0.0785
      3 C3          0.9916   -1.6522    0.8875 C.3       1 <0>        -0.1544
      4 C4         -1.1928   -1.3365   -0.2429 C.ar      1 <0>         0.0648
      5 C5         -1.9447   -0.8761    0.8295 C.ar      1 <0>        -0.1112
      6 C6         -3.2939   -1.1565    0.8766 C.ar      1 <0>         0.1241
      7 N1         -3.8744   -1.8596   -0.0901 N.ar      1 <0>        -0.2865
      8 C7         -3.1823   -2.3146   -1.1292 C.ar      1 <0>         0.1287
      9 C8         -1.8309   -2.0632   -1.2389 C.ar      1 <0>        -0.1136
     10 C9         -5.2156   -2.1214   -0.0136 C.2       1 <0>         0.2265
     11 C10        -6.0309   -1.8995   -1.0928 C.2       1 <0>        -0.0767
     12 S1         -7.6214   -2.3974   -0.4506 S.3       1 <0>         0.1106
     13 C11        -7.0896   -2.8597    1.1903 C.2       1 <0>         0.5223
     14 N2         -5.7602   -2.6119    1.1340 N.am      1 <0>        -0.6412
     15 O1         -7.7507   -3.2905    2.1178 O.2       1 <0>        -0.3940
     16 C12        -5.6886   -1.3883   -2.4211 C.2       1 <0>         0.1269
     17 N3         -6.5950   -1.3425   -3.3544 N.2       1 <0>        -0.2150
     18 N4         -6.2673   -0.8533   -4.6257 N.pl3     1 <0>        -0.5291
     19 C13        -7.2058   -0.8058   -5.5919 C.2       1 <0>         0.5853
     20 S2         -6.8054   -0.2080   -7.1454 S.2       1 <0>        -0.5536
     21 N5         -8.4593   -1.2290   -5.3352 N.pl3     1 <0>        -0.7755
     22 H1          1.5759    0.6737   -0.4083 H         1 <0>         0.0842
     23 H2          0.0036    0.8955   -1.2127 H         1 <0>         0.0659
     24 H3          0.1032    0.9045    0.5645 H         1 <0>         0.0659
     25 H4          0.6885   -1.4875   -1.2390 H         1 <0>         0.1085
     26 H5          0.5871   -1.2129    1.7993 H         1 <0>         0.0658
     27 H6          0.8321   -2.7304    0.9019 H         1 <0>         0.0654
     28 H7          2.0597   -1.4437    0.8266 H         1 <0>         0.0842
     29 H8         -1.4779   -0.3048    1.6183 H         1 <0>         0.1932
     30 H9         -3.8849   -0.8015    1.7078 H         1 <0>         0.2089
     31 H10        -3.6841   -2.8837   -1.8977 H         1 <0>         0.2104
     32 H11        -1.2742   -2.4315   -2.0879 H         1 <0>         0.1959
     33 H12        -4.6840   -1.0493   -2.6268 H         1 <0>         0.1475
     34 H13        -5.3651   -0.5487   -4.8105 H         1 <0>         0.4261
     35 H14        -8.6862   -1.5677   -4.4550 H         1 <0>         0.4085
     36 H15        -9.1347   -1.1948   -6.0306 H         1 <0>         0.4396
     37 H16        -5.1994   -2.7795    1.9075 H         1 <0>         0.4246
@<TRIPOS>BOND
     1    1    2 1
     2    1   22 1
     3    1   23 1
     4    1   24 1
     5    2    3 1
     6    2    4 1
     7    2   25 1
     8    3   26 1
     9    3   27 1
    10    3   28 1
    11    4    9 ar
    12    4    5 ar
    13    5    6 ar
    14    5   29 1
    15    6    7 ar
    16    6   30 1
    17    7    8 ar
    18    7   10 1
    19    8    9 ar
    20    8   31 1
    21    9   32 1
    22   10   14 1
    23   10   11 2
    24   11   12 1
    25   11   16 1
    26   12   13 1
    27   13   14 am
    28   13   15 2
    29   14   37 1
    30   16   17 2
    31   16   33 1
    32   17   18 1
    33   18   19 1
    34   18   34 1
    35   19   20 2
    36   19   21 1
    37   21   35 1
    38   21   36 1
@<TRIPOS>MOLECULE
ZINC19278137
   43    45     0     0     0
SMALL
USER_CHARGES
2-[(2S)-2-amino-2-(p-tolyl)ethyl]-2,4-diazaspiro[4.4]nonane-1,3-dione
@<TRIPOS>ATOM
      1 C1          5.3538    9.2766   -1.4517 C.3       1 <0>        -0.1343
      2 C2          4.4721    8.0544   -1.4476 C.ar      1 <0>        -0.0454
      3 C3          5.0264    6.8016   -1.6319 C.ar      1 <0>        -0.1096
      4 C4          4.2177    5.6805   -1.6277 C.ar      1 <0>        -0.0755
      5 C5          2.8546    5.8123   -1.4395 C.ar      1 <0>        -0.1562
      6 C6          2.2995    7.0656   -1.2609 C.ar      1 <0>        -0.1116
      7 C7          3.1089    8.1862   -1.2599 C.ar      1 <0>        -0.1090
      8 C8          1.9729    4.5901   -1.4354 C.3       1 <0>         0.0837
      9 H1          2.4747    3.7683   -1.9672 H         1 <0>         0.1501
     10 C9          1.6554    4.1953    0.0083 C.3       1 <0>         0.0967
     11 N1          0.7035    3.0816    0.0119 N.am      1 <0>        -0.5958
     12 C10        -0.6387    3.2301    0.0255 C.2       1 <0>         0.5201
     13 O1         -1.2637    4.2689    0.0377 O.2       1 <0>        -0.4578
     14 C11        -1.1940    1.8286    0.0169 C.3       1 <0>         0.0978
     15 C12        -2.0570    1.5733    1.2597 C.3       1 <0>        -0.1191
     16 C13        -3.5096    1.7744    0.7550 C.3       1 <0>        -0.1262
     17 C14        -3.4638    1.1773   -0.6742 C.3       1 <0>        -0.1205
     18 C15        -2.0739    1.5849   -1.2115 C.3       1 <0>        -0.1136
     19 N2         -0.0111    0.9658    0.0074 N.am      1 <0>        -0.7200
     20 C16         1.0562    1.7896    0.0016 C.2       1 <0>         0.7038
     21 O2          2.2084    1.4033   -0.0115 O.2       1 <0>        -0.5220
     22 N3          0.7230    4.8856   -2.1484 N.4       1 <0>        -0.6858
     23 H2          6.3989    8.9742   -1.6137 H         1 <0>         0.0755
     24 H3          5.2675    9.7942   -0.4849 H         1 <0>         0.0823
     25 H4          5.0385    9.9534   -2.2595 H         1 <0>         0.0817
     26 H5          6.0914    6.6986   -1.7789 H         1 <0>         0.1382
     27 H6          4.6508    4.7017   -1.7717 H         1 <0>         0.1362
     28 H7          1.2340    7.1690   -1.1183 H         1 <0>         0.1213
     29 H8          2.6757    9.1651   -1.1163 H         1 <0>         0.1365
     30 H9          2.5813    3.8879    0.5164 H         1 <0>         0.1444
     31 H10         1.2160    5.0550    0.5354 H         1 <0>         0.1242
     32 H11        -1.8824    0.5500    1.6234 H         1 <0>         0.0954
     33 H12        -1.7882    2.2931    2.0469 H         1 <0>         0.0771
     34 H13        -4.2053    1.2375    1.4167 H         1 <0>         0.0844
     35 H14        -3.7539    2.8469    0.7588 H         1 <0>         0.0783
     36 H15        -3.5807    0.0849   -0.6191 H         1 <0>         0.0811
     37 H16        -4.2800    1.6035   -1.2760 H         1 <0>         0.0822
     38 H17        -2.1356    2.5076   -1.8072 H         1 <0>         0.0746
     39 H18        -1.6358    0.7823   -1.8230 H         1 <0>         0.0931
     40 H19        -0.1281   -0.1280    0.0063 H         1 <0>         0.4818
     41 H20         0.0795    3.9935   -2.1454 H         1 <0>         0.4431
     42 H21         0.9513    5.1696   -3.1863 H         1 <0>         0.4641
     43 H22         0.2024    5.7150   -1.6474 H         1 <0>         0.4549
@<TRIPOS>BOND
     1    1    2 1
     2    1   23 1
     3    1   24 1
     4    1   25 1
     5    2    7 ar
     6    2    3 ar
     7    3    4 ar
     8    3   26 1
     9    4    5 ar
    10    4   27 1
    11    5    6 ar
    12    5    8 1
    13    6    7 ar
    14    6   28 1
    15    7   29 1
    16    8    9 1
    17    8   10 1
    18    8   22 1
    19   10   11 1
    20   10   30 1
    21   10   31 1
    22   11   20 am
    23   11   12 am
    24   12   13 2
    25   12   14 1
    26   14   18 1
    27   14   15 1
    28   14   19 1
    29   15   16 1
    30   15   32 1
    31   15   33 1
    32   16   17 1
    33   16   34 1
    34   16   35 1
    35   17   18 1
    36   17   36 1
    37   17   37 1
    38   18   38 1
    39   18   39 1
    40   19   20 am
    41   19   40 1
    42   20   21 2
    43   22   41 1
    44   22   42 1
    45   22   43 1
@<TRIPOS>MOLECULE
ZINC37439601
   40    42     0     0     0
SMALL
USER_CHARGES

@<TRIPOS>ATOM
      1 C1         -0.0187    1.5258    0.0104 C.3       1 <0>        -0.1557
      2 C2          0.0021   -0.0041    0.0020 C.3       1 <0>        -0.1407
      3 C3         -1.4333   -0.5336    0.0129 C.3       1 <0>         0.0951
      4 N1         -1.4134   -1.9985    0.0048 N.pl3     1 <0>        -0.4630
      5 C4         -1.4069   -2.8114   -1.1125 C.ar      1 <0>         0.0579
      6 C5         -1.4160   -2.5720   -2.4797 C.ar      1 <0>        -0.0804
      7 C6         -1.4051   -3.6308   -3.3618 C.ar      1 <0>        -0.1112
      8 C7         -1.3854   -4.9386   -2.8917 C.ar      1 <0>         0.1079
      9 C8         -1.3765   -5.1944   -1.5379 C.ar      1 <0>        -0.0972
     10 C9         -1.3865   -4.1309   -0.6311 C.ar      1 <0>         0.0720
     11 N2         -1.3818   -4.0576    0.7248 N.2       1 <0>        -0.4653
     12 C10        -1.3921   -2.8105    1.0957 C.2       1 <0>         0.2147
     13 C11        -1.3850   -2.3351    2.5258 C.3       1 <0>         0.1394
     14 H1         -1.1331   -1.2750    2.5550 H         1 <0>         0.1524
     15 C12        -2.7698   -2.5474    3.1407 C.3       1 <0>        -0.0423
     16 C13        -2.7984   -1.9610    4.5286 C.2       1 <0>        -0.0488
     17 C14        -3.6816   -1.0531    4.9860 C.2       1 <0>        -0.0084
     18 N3         -3.3485   -0.7981    6.2890 N.pl3     1 <0>        -0.5581
     19 H2         -3.8008   -0.1850    6.8893 H         1 <0>         0.4350
     20 C15        -2.2726   -1.5597    6.5826 C.2       1 <0>         0.2251
     21 N4         -1.9523   -2.2562    5.5266 N.2       1 <0>        -0.5318
     22 N5         -0.3879   -3.0965    3.2900 N.4       1 <0>        -0.6248
     23 F1         -1.3753   -5.9664   -3.7685 F         1 <0>        -0.1250
     24 H3          1.0039    1.9031    0.0027 H         1 <0>         0.0700
     25 H4         -0.5459    1.8868   -0.8726 H         1 <0>         0.0654
     26 H5         -0.5289    1.8773    0.9072 H         1 <0>         0.0602
     27 H6          0.5123   -0.3556   -0.8948 H         1 <0>         0.0781
     28 H7          0.5293   -0.3651    0.8851 H         1 <0>         0.0637
     29 H8         -1.9435   -0.1821    0.9097 H         1 <0>         0.0989
     30 H9         -1.9605   -0.1726   -0.8702 H         1 <0>         0.1067
     31 H10        -1.4321   -1.5581   -2.8515 H         1 <0>         0.1410
     32 H11        -1.4122   -3.4431   -4.4254 H         1 <0>         0.1542
     33 H12        -1.3616   -6.2128   -1.1788 H         1 <0>         0.1504
     34 H13        -3.5210   -2.0554    2.5228 H         1 <0>         0.1229
     35 H14        -2.9845   -3.6148    3.1927 H         1 <0>         0.1132
     36 H15        -4.4959   -0.6108    4.4314 H         1 <0>         0.1857
     37 H16        -1.7641   -1.5903    7.5349 H         1 <0>         0.2204
     38 H17        -0.6210   -4.0778    3.2629 H         1 <0>         0.4423
     39 H18         0.5254   -2.9565    2.8845 H         1 <0>         0.4319
     40 H19        -0.3831   -2.7782    4.2474 H         1 <0>         0.4483
@<TRIPOS>BOND
     1    1    2 1
     2    1   24 1
     3    1   25 1
     4    1   26 1
     5    2    3 1
     6    2   27 1
     7    2   28 1
     8    3    4 1
     9    3   29 1
    10    3   30 1
    11    4   12 1
    12    4    5 1
    13    5   10 ar
    14    5    6 ar
    15    6    7 ar
    16    6   31 1
    17    7    8 ar
    18    7   32 1
    19    8    9 ar
    20    8   23 1
    21    9   10 ar
    22    9   33 1
    23   10   11 1
    24   11   12 2
    25   12   13 1
    26   13   14 1
    27   13   15 1
    28   13   22 1
    29   15   16 1
    30   15   34 1
    31   15   35 1
    32   16   21 1
    33   16   17 2
    34   17   18 1
    35   17   36 1
    36   18   19 1
    37   18   20 1
    38   20   21 2
    39   20   37 1
    40   22   38 1
    41   22   39 1
    42   22   40 1
@<TRIPOS>MOLECULE
ZINC47629037
   35    35     0     0     0
SMALL
USER_CHARGES

@<TRIPOS>ATOM
      1 C1          0.0062    1.5721    0.1216 C.3       1 <0>        -0.1833
      2 C2          0.0040    0.0443    0.2041 C.3       1 <0>         0.0081
      3 H1          0.7932   -0.3551   -0.4330 H         1 <0>         0.1695
      4 C3          0.2449   -0.3822    1.6293 C.2       1 <0>         0.5085
      5 O1         -0.6687   -0.8265    2.2919 O.2       1 <0>        -0.5027
      6 N1          1.4754   -0.2699    2.1675 N.am      1 <0>        -0.6381
      7 C4          1.7197   -0.7460    3.4628 C.ar      1 <0>         0.1064
      8 C5          0.7195   -0.6908    4.4237 C.ar      1 <0>        -0.0701
      9 C6          0.9612   -1.1599    5.7006 C.ar      1 <0>        -0.1123
     10 C7          2.2001   -1.6859    6.0242 C.ar      1 <0>         0.1057
     11 C8          3.2022   -1.7431    5.0678 C.ar      1 <0>         0.0572
     12 C9          2.9621   -1.2792    3.7853 C.ar      1 <0>         0.0831
     13 F1          3.9356   -1.3398    2.8505 F         1 <0>        -0.1119
     14 F2          4.4110   -2.2560    5.3856 F         1 <0>        -0.1035
     15 F3          2.4332   -2.1437    7.2737 F         1 <0>        -0.1071
     16 N2         -1.2964   -0.4686   -0.2475 N.4       1 <0>        -0.3583
     17 C10        -1.5810    0.0383   -1.5965 C.3       1 <0>        -0.0636
     18 C11        -1.2614   -1.9370   -0.2733 C.3       1 <0>        -0.0423
     19 C12        -2.6339   -2.4664   -0.6004 C.2       1 <0>         0.5160
     20 O2         -3.5509   -1.6964   -0.7930 O.2       1 <0>        -0.5278
     21 N3         -2.8424   -3.7956   -0.6789 N.am      1 <0>        -0.8234
     22 H2          0.9711    1.9526    0.4566 H         1 <0>         0.1146
     23 H3         -0.1679    1.8805   -0.9092 H         1 <0>         0.1071
     24 H4         -0.7829    1.9714    0.7586 H         1 <0>         0.0948
     25 H5          2.1918    0.1404    1.6584 H         1 <0>         0.4271
     26 H6         -0.2477   -0.2808    4.1732 H         1 <0>         0.1692
     27 H7          0.1824   -1.1157    6.4475 H         1 <0>         0.1666
     28 H8         -2.5459   -0.3423   -1.9316 H         1 <0>         0.1470
     29 H9         -1.6069    1.1278   -1.5774 H         1 <0>         0.1338
     30 H10        -0.8013   -0.2946   -2.2817 H         1 <0>         0.1250
     31 H11        -0.5531   -2.2702   -1.0319 H         1 <0>         0.1623
     32 H12        -0.9510   -2.3102    0.7026 H         1 <0>         0.1636
     33 H13        -2.1089   -4.4115   -0.5248 H         1 <0>         0.4138
     34 H14        -3.7258   -4.1364   -0.8894 H         1 <0>         0.4253
     35 H15        -2.0181   -0.1605    0.3868 H         1 <0>         0.4397
@<TRIPOS>BOND
     1    1    2 1
     2    1   22 1
     3    1   23 1
     4    1   24 1
     5    2    3 1
     6    2    4 1
     7    2   16 1
     8    4    5 2
     9    4    6 am
    10    6    7 1
    11    6   25 1
    12    7   12 ar
    13    7    8 ar
    14    8    9 ar
    15    8   26 1
    16    9   10 ar
    17    9   27 1
    18   10   11 ar
    19   10   15 1
    20   11   12 ar
    21   11   14 1
    22   12   13 1
    23   16   17 1
    24   16   18 1
    25   16   35 1
    26   17   28 1
    27   17   29 1
    28   17   30 1
    29   18   19 1
    30   18   31 1
    31   18   32 1
    32   19   20 2
    33   19   21 am
    34   21   33 1
    35   21   34 1
@<TRIPOS>MOLECULE
ZINC38043265
   51    53     0     0     0
SMALL
USER_CHARGES

@<TRIPOS>ATOM
      1 C1         -0.9020    1.1793   -0.7069 C.3       1 <0>        -0.1138
      2 C2          0.5542    1.5788   -0.4601 C.3       1 <0>        -0.1313
      3 C3          1.4061    1.1701   -1.6635 C.3       1 <0>         0.1521
      4 H1          2.4435    1.4546   -1.4877 H         1 <0>         0.0972
      5 C4          1.3190   -0.3448   -1.8592 C.3       1 <0>        -0.1249
      6 C5         -0.1372   -0.7443   -2.1060 C.3       1 <0>         0.1070
      7 H2         -0.5056   -0.2407   -2.9997 H         1 <0>         0.0480
      8 C6         -0.9891   -0.3356   -0.9026 C.3       1 <0>        -0.1571
      9 O1         -0.2186   -2.1592   -2.2887 O.3       1 <0>        -0.5640
     10 N1          0.9110    1.8469   -2.8647 N.am      1 <0>        -0.7254
     11 C7          1.3292    3.0946   -3.1560 C.2       1 <0>         0.5210
     12 O2          2.1155    3.6570   -2.4236 O.2       1 <0>        -0.5174
     13 C8          0.8199    3.7908   -4.3917 C.3       1 <0>         0.0457
     14 H3         -0.2659    3.8758   -4.3489 H         1 <0>         0.0792
     15 C9          1.2353    3.0019   -5.6472 C.3       1 <0>        -0.1275
     16 C10         2.0859    3.9878   -6.4805 C.3       1 <0>        -0.1238
     17 C11         1.6280    5.3711   -5.9541 C.3       1 <0>         0.0335
     18 N2          1.4267    5.1354   -4.4986 N.3       1 <0>        -0.4854
     19 C12         0.5493    6.1571   -3.9117 C.3       1 <0>         0.0669
     20 C13         1.1355    7.5474   -4.1739 C.3       1 <0>        -0.1444
     21 C14         0.2598    8.6009   -3.4924 C.3       1 <0>        -0.0033
     22 N3          0.2209    8.3493   -2.0468 N.4       1 <0>        -0.5052
     23 C15        -0.4058    7.0482   -1.7844 C.3       1 <0>        -0.0057
     24 C16         0.4443    5.9349   -2.4002 C.3       1 <0>        -0.1396
     25 H4         -1.5089    1.4705    0.1504 H         1 <0>         0.0673
     26 H5         -1.2704    1.6829   -1.6007 H         1 <0>         0.0584
     27 H6          0.6163    2.6580   -0.3207 H         1 <0>         0.0666
     28 H7          0.9226    1.0752    0.4336 H         1 <0>         0.0781
     29 H8          1.9259   -0.6360   -2.7165 H         1 <0>         0.0792
     30 H9          1.6873   -0.8484   -0.9654 H         1 <0>         0.0907
     31 H10        -0.6207   -0.8392   -0.0088 H         1 <0>         0.0765
     32 H11        -2.0265   -0.6201   -1.0784 H         1 <0>         0.0679
     33 H12        -1.1150   -2.4840   -2.4502 H         1 <0>         0.3826
     34 H13         0.2821    1.3971   -3.4505 H         1 <0>         0.3989
     35 H14         1.8297    2.1319   -5.3679 H         1 <0>         0.0827
     36 H15         0.3537    2.6940   -6.2094 H         1 <0>         0.0829
     37 H16         3.1485    3.8356   -6.2915 H         1 <0>         0.0824
     38 H17         1.8637    3.8864   -7.5428 H         1 <0>         0.0840
     39 H18         2.4015    6.1210   -6.1196 H         1 <0>         0.0930
     40 H19         0.6922    5.6716   -6.4255 H         1 <0>         0.0526
     41 H20        -0.4418    6.0876   -4.3601 H         1 <0>         0.0580
     42 H21         2.1467    7.5981   -3.7702 H         1 <0>         0.1017
     43 H22         1.1617    7.7348   -5.2473 H         1 <0>         0.1119
     44 H23         0.6742    9.5920   -3.6772 H         1 <0>         0.1368
     45 H24        -0.7510    8.5496   -3.8970 H         1 <0>         0.1290
     46 H25         1.1613    8.3484   -1.6811 H         1 <0>         0.4306
     47 H26        -0.4828    6.8930   -0.7082 H         1 <0>         0.1350
     48 H27        -1.4025    7.0299   -2.2254 H         1 <0>         0.1272
     49 H28        -0.0236    4.9698   -2.2058 H         1 <0>         0.1017
     50 H29         1.4411    5.9521   -1.9596 H         1 <0>         0.1108
     51 H30        -0.3131    9.0761   -1.5942 H         1 <0>         0.4317
@<TRIPOS>BOND
     1    1    8 1
     2    1    2 1
     3    1   25 1
     4    1   26 1
     5    2    3 1
     6    2   27 1
     7    2   28 1
     8    3    4 1
     9    3    5 1
    10    3   10 1
    11    5    6 1
    12    5   29 1
    13    5   30 1
    14    6    7 1
    15    6    8 1
    16    6    9 1
    17    8   31 1
    18    8   32 1
    19    9   33 1
    20   10   11 am
    21   10   34 1
    22   11   12 2
    23   11   13 1
    24   13   14 1
    25   13   18 1
    26   13   15 1
    27   15   16 1
    28   15   35 1
    29   15   36 1
    30   16   17 1
    31   16   37 1
    32   16   38 1
    33   17   18 1
    34   17   39 1
    35   17   40 1
    36   18   19 1
    37   19   24 1
    38   19   20 1
    39   19   41 1
    40   20   21 1
    41   20   42 1
    42   20   43 1
    43   21   22 1
    44   21   44 1
    45   21   45 1
    46   22   23 1
    47   22   46 1
    48   22   51 1
    49   23   24 1
    50   23   47 1
    51   23   48 1
    52   24   49 1
    53   24   50 1
@<TRIPOS>MOLECULE
ZINC62175565
   38    39     0     0     0
SMALL
USER_CHARGES

@<TRIPOS>ATOM
      1 C1          0.0948    1.1705    0.3864 C.ar      1 <0>        -0.0560
      2 C2          1.2742    1.8869    0.3661 C.ar      1 <0>        -0.1255
      3 C3          2.4924    1.2270    0.2434 C.ar      1 <0>         0.1429
      4 C4          2.5182   -0.1532    0.1438 C.ar      1 <0>        -0.1990
      5 C5          1.3322   -0.8676    0.1619 C.ar      1 <0>        -0.0635
      6 C6          0.1228   -0.2088    0.2831 C.ar      1 <0>        -0.0602
      7 Cl1        -1.3596   -1.1119    0.3064 Cl        1 <0>        -0.0466
      8 C7          3.8177   -0.9078    0.0207 C.3       1 <0>         0.1397
      9 H1          3.7087   -1.6992   -0.7208 H         1 <0>         0.0960
     10 C8          4.9302    0.0488   -0.4152 C.3       1 <0>        -0.0073
     11 H2          4.7839    0.3318   -1.4576 H         1 <0>         0.1827
     12 C9          4.8676    1.2978    0.4732 C.3       1 <0>         0.0594
     13 O1          3.6314    1.9676    0.2220 O.3       1 <0>        -0.2814
     14 N1          6.2358   -0.6060   -0.2587 N.4       1 <0>        -0.3674
     15 C10         6.3289   -1.7407   -1.1870 C.3       1 <0>        -0.0150
     16 C11         7.6608   -2.4638   -0.9767 C.3       1 <0>         0.0478
     17 O2          7.6880   -3.0413    0.3301 O.3       1 <0>        -0.5750
     18 C12         7.3052    0.3570   -0.5537 C.3       1 <0>        -0.0229
     19 C13         7.2348    0.7616   -2.0276 C.3       1 <0>         0.0428
     20 O3          6.0413    1.5128   -2.2588 O.3       1 <0>        -0.5711
     21 O4          4.1548   -1.4834    1.2844 O.3       1 <0>        -0.5654
     22 H3         -0.8490    1.6858    0.4873 H         1 <0>         0.1514
     23 H4          1.2511    2.9638    0.4455 H         1 <0>         0.1510
     24 H5          1.3520   -1.9443    0.0809 H         1 <0>         0.1409
     25 H6          4.9202    1.0054    1.5219 H         1 <0>         0.0895
     26 H7          5.6994    1.9605    0.2342 H         1 <0>         0.1308
     27 H8          5.5069   -2.4316   -0.9999 H         1 <0>         0.1384
     28 H9          6.2712   -1.3766   -2.2128 H         1 <0>         0.1438
     29 H10         7.7692   -3.2501   -1.7237 H         1 <0>         0.0960
     30 H11         8.4803   -1.7522   -1.0766 H         1 <0>         0.0709
     31 H12         8.5052   -3.5169    0.5330 H         1 <0>         0.4084
     32 H13         7.1810    1.2408    0.0721 H         1 <0>         0.1420
     33 H14         8.2730   -0.1006   -0.3484 H         1 <0>         0.1489
     34 H15         8.1025    1.3717   -2.2787 H         1 <0>         0.1003
     35 H16         7.2273   -0.1331   -2.6500 H         1 <0>         0.0745
     36 H17         5.9306    1.8032   -3.1745 H         1 <0>         0.4072
     37 H18         3.4949   -2.1042    1.6225 H         1 <0>         0.4107
     38 H19         6.3341   -0.9379    0.6891 H         1 <0>         0.4401
@<TRIPOS>BOND
     1    1    6 ar
     2    1    2 ar
     3    1   22 1
     4    2    3 ar
     5    2   23 1
     6    3   13 1
     7    3    4 ar
     8    4    5 ar
     9    4    8 1
    10    5    6 ar
    11    5   24 1
    12    6    7 1
    13    8    9 1
    14    8   10 1
    15    8   21 1
    16   10   11 1
    17   10   12 1
    18   10   14 1
    19   12   13 1
    20   12   25 1
    21   12   26 1
    22   14   15 1
    23   14   18 1
    24   14   38 1
    25   15   16 1
    26   15   27 1
    27   15   28 1
    28   16   17 1
    29   16   29 1
    30   16   30 1
    31   17   31 1
    32   18   19 1
    33   18   32 1
    34   18   33 1
    35   19   20 1
    36   19   34 1
    37   19   35 1
    38   20   36 1
    39   21   37 1
@<TRIPOS>MOLECULE
ZINC02574882
   17    17     0     0     0
SMALL
USER_CHARGES
2,4,5-trifluorobenzenesulfonamide
@<TRIPOS>ATOM
      1 C1         -0.6452    4.5943   -2.7311 C.ar      1 <0>        -0.1803
      2 C2         -1.5850    4.3382   -3.7142 C.ar      1 <0>         0.1577
      3 C3         -2.4865    3.2968   -3.5557 C.ar      1 <0>         0.0445
      4 C4         -2.4458    2.5145   -2.4147 C.ar      1 <0>         0.0041
      5 C5         -1.5070    2.7710   -1.4335 C.ar      1 <0>        -0.7063
      6 C6         -0.6098    3.8143   -1.5882 C.ar      1 <0>         0.2151
      7 F1          0.3039    4.0675   -0.6258 F         1 <0>        -0.1067
      8 S1         -1.4563    1.7742    0.0186 S.o2      1 <0>         2.7079
      9 O1         -2.4724    0.7917   -0.1276 O.2       1 <0>        -0.9458
     10 O2         -1.4135    2.6674    1.1230 O.2       1 <0>        -0.9358
     11 N1         -0.0111    0.9658    0.0074 N.pl3     1 <0>        -1.2375
     12 F2         -3.4047    3.0461   -4.5144 F         1 <0>        -0.1130
     13 F3         -1.6237    5.1021   -4.8278 F         1 <0>        -0.1052
     14 H1          0.0573    5.4054   -2.8535 H         1 <0>         0.1727
     15 H2         -3.1478    1.7031   -2.2912 H         1 <0>         0.1805
     16 H3          0.0021   -0.0041    0.0020 H         1 <0>         0.4269
     17 H4          0.8223    1.4622    0.0021 H         1 <0>         0.4212
@<TRIPOS>BOND
     1    1    6 ar
     2    1    2 ar
     3    1   14 1
     4    2    3 ar
     5    2   13 1
     6    3    4 ar
     7    3   12 1
     8    4    5 ar
     9    4   15 1
    10    5    6 ar
    11    5    8 1
    12    6    7 1
    13    8    9 2
    14    8   10 2
    15    8   11 1
    16   11   16 1
    17   11   17 1
@<TRIPOS>MOLECULE
ZINC37972359
   37    38     0     0     0
SMALL
USER_CHARGES

@<TRIPOS>ATOM
      1 C1          1.0325    1.7300   -0.7242 C.3       1 <0>        -0.1283
      2 C2          2.5594    1.9105   -0.6028 C.3       1 <0>        -0.1242
      3 C3          2.9175    1.9827    0.8570 C.3       1 <0>        -0.1115
      4 C4          3.3218    0.6123    1.4332 C.3       1 <0>        -0.1368
      5 C5          2.4197   -0.5340    0.9370 C.3       1 <0>         0.0120
      6 C6          0.9648   -0.1508    0.9087 C.3       1 <0>        -0.1409
      7 C7          0.6178    0.3518   -0.5077 C.3       1 <0>        -0.0960
      8 N1          2.5892   -1.6910    1.8262 N.4       1 <0>        -0.4827
      9 C8          2.2206   -2.9184    1.1082 C.3       1 <0>        -0.0194
     10 C9          2.8948   -2.9043   -0.2555 C.3       1 <0>        -0.1336
     11 C10         1.9082   -2.9820   -1.4420 C.3       1 <0>        -0.0632
     12 S1          0.3531   -2.3700   -0.6581 S.3       1 <0>        -0.2709
     13 C11         0.6794   -3.0078    1.0432 C.3       1 <0>        -0.0745
     14 C12         2.7386   -4.1016    1.8846 C.2       1 <0>         0.4990
     15 O1          3.4370   -3.9266    2.8685 O.co2     1 <0>        -0.6636
     16 O2          2.4593   -5.2338    1.5288 O.co2     1 <0>        -0.6243
     17 H1          0.5421    2.3660    0.0128 H         1 <0>         0.0623
     18 H2          0.7184    2.0407   -1.7206 H         1 <0>         0.0649
     19 H3          3.0662    1.0621   -1.0626 H         1 <0>         0.0638
     20 H4          2.8597    2.8331   -1.0995 H         1 <0>         0.0702
     21 H5          3.7484    2.6770    0.9823 H         1 <0>         0.0738
     22 H6          2.0587    2.3595    1.4126 H         1 <0>         0.0714
     23 H7          4.3511    0.3995    1.1448 H         1 <0>         0.0823
     24 H8          3.2660    0.6579    2.5208 H         1 <0>         0.0799
     25 H9          2.7296   -0.8165   -0.0691 H         1 <0>         0.1421
     26 H10         0.3525   -1.0200    1.1490 H         1 <0>         0.0924
     27 H11         0.7808    0.6419    1.6338 H         1 <0>         0.0812
     28 H12        -0.4601    0.2804   -0.6534 H         1 <0>         0.0730
     29 H13         1.1141   -0.2853   -1.2398 H         1 <0>         0.0758
     30 H14         3.5523   -1.7502    2.1212 H         1 <0>         0.4282
     31 H15         3.4767   -1.9871   -0.3463 H         1 <0>         0.0921
     32 H16         3.5776   -3.7519   -0.3147 H         1 <0>         0.1093
     33 H17         2.2211   -2.3271   -2.2553 H         1 <0>         0.1174
     34 H18         1.7938   -4.0086   -1.7899 H         1 <0>         0.1060
     35 H19         0.3420   -4.0391    1.1463 H         1 <0>         0.1313
     36 H20         0.2178   -2.3691    1.7963 H         1 <0>         0.1205
     37 H21         1.9957   -1.5834    2.6350 H         1 <0>         0.4213
@<TRIPOS>BOND
     1    1    7 1
     2    1    2 1
     3    1   17 1
     4    1   18 1
     5    2    3 1
     6    2   19 1
     7    2   20 1
     8    3    4 1
     9    3   21 1
    10    3   22 1
    11    4    5 1
    12    4   23 1
    13    4   24 1
    14    5    6 1
    15    5    8 1
    16    5   25 1
    17    6    7 1
    18    6   26 1
    19    6   27 1
    20    7   28 1
    21    7   29 1
    22    8    9 1
    23    8   30 1
    24    8   37 1
    25    9   13 1
    26    9   10 1
    27    9   14 1
    28   10   11 1
    29   10   31 1
    30   10   32 1
    31   11   12 1
    32   11   33 1
    33   11   34 1
    34   12   13 1
    35   13   35 1
    36   13   36 1
    37   14   15 2
    38   14   16 1
@<TRIPOS>MOLECULE
ZINC42767952
   21    21     0     0     0
SMALL
USER_CHARGES

@<TRIPOS>ATOM
      1 C1          0.6339   -0.8567    1.1020 C.3       1 <0>        -0.1881
      2 C2         -0.7933   -0.3308    1.2675 C.3       1 <0>        -0.1729
      3 C3          0.0009   -0.0026    0.0017 C.3       1 <0>         0.0569
      4 N1         -0.3918   -0.6782   -1.2375 N.am      1 <0>        -0.5990
      5 C4         -1.4641   -1.6763   -1.2195 C.3       1 <0>         0.0896
      6 C5         -2.8066   -0.9870   -1.4713 C.3       1 <0>         0.4323
      7 F1         -2.7793   -0.3544   -2.7188 F         1 <0>        -0.1709
      8 F2         -3.8306   -1.9402   -1.4541 F         1 <0>        -0.1811
      9 F3         -3.0376   -0.0364   -0.4712 F         1 <0>        -0.1811
     10 C6          0.2334   -0.3815   -2.3941 C.2       1 <0>         0.7138
     11 O1         -0.1516   -0.8740   -3.4369 O.2       1 <0>        -0.5725
     12 N2          1.2853    0.4610   -2.3946 N.am      1 <0>        -0.8580
     13 H1          1.4132   -0.3974    1.7100 H         1 <0>         0.1086
     14 H2          0.7582   -1.9213    0.9039 H         1 <0>         0.1009
     15 H3         -1.6080   -1.0494    1.1783 H         1 <0>         0.1016
     16 H4         -0.9529    0.4745    1.9845 H         1 <0>         0.1117
     17 H5          0.3638    1.0187   -0.1141 H         1 <0>         0.1340
     18 H6         -1.2841   -2.4169   -1.9987 H         1 <0>         0.1320
     19 H7         -1.4853   -2.1692   -0.2476 H         1 <0>         0.1239
     20 H8          1.6386    0.7963   -1.5558 H         1 <0>         0.3998
     21 H9          1.6891    0.7321   -3.2339 H         1 <0>         0.4187
@<TRIPOS>BOND
     1    1    3 1
     2    1    2 1
     3    1   13 1
     4    1   14 1
     5    2    3 1
     6    2   15 1
     7    2   16 1
     8    3    4 1
     9    3   17 1
    10    4    5 1
    11    4   10 am
    12    5    6 1
    13    5   18 1
    14    5   19 1
    15    6    7 1
    16    6    8 1
    17    6    9 1
    18   10   11 2
    19   10   12 am
    20   12   20 1
    21   12   21 1
@<TRIPOS>MOLECULE
ZINC49807155
   29    29     0     0     0
SMALL
USER_CHARGES

@<TRIPOS>ATOM
      1 C1         -0.0184    1.5028    0.0103 C.3       1 <0>        -0.1168
      2 C2          0.0021   -0.0041    0.0020 C.ar      1 <0>        -0.0706
      3 C3          0.0057   -0.6876   -1.1999 C.ar      1 <0>        -0.1171
      4 C4          0.0240   -2.0689   -1.2101 C.ar      1 <0>        -0.0760
      5 C5          0.0391   -2.7702   -0.0132 C.ar      1 <0>         0.0725
      6 C6          0.0359   -2.0820    1.1914 C.ar      1 <0>        -0.0739
      7 C7          0.0229   -0.7006    1.1963 C.ar      1 <0>        -0.1167
      8 C8          0.0518   -2.8406    2.4934 C.3       1 <0>        -0.1187
      9 O1          0.0567   -4.1293   -0.0207 O.3       1 <0>        -0.2947
     10 C9          1.2502   -4.7442   -0.0302 C.2       1 <0>         0.4525
     11 O2          2.2665   -4.0908   -0.0319 O.2       1 <0>        -0.4739
     12 C10         1.3222   -6.2495   -0.0387 C.3       1 <0>         0.0747
     13 N1          2.7290   -6.6724   -0.0483 N.3       1 <0>        -0.8364
     14 C11         0.0269   -2.8133   -2.5204 C.3       1 <0>        -0.1180
     15 H1          1.0042    1.8801    0.0026 H         1 <0>         0.0741
     16 H2         -0.5455    1.8639   -0.8728 H         1 <0>         0.0693
     17 H3         -0.5286    1.8543    0.9071 H         1 <0>         0.0695
     18 H4         -0.0061   -0.1413   -2.1314 H         1 <0>         0.1302
     19 H5          0.0248   -0.1643    2.1337 H         1 <0>         0.1306
     20 H6          1.0832   -3.0102    2.8025 H         1 <0>         0.0734
     21 H7         -0.4659   -2.2612    3.2578 H         1 <0>         0.0742
     22 H8         -0.4503   -3.7990    2.3616 H         1 <0>         0.0706
     23 H9          0.8309   -6.6418    0.8517 H         1 <0>         0.1183
     24 H10         0.8217   -6.6321   -0.9282 H         1 <0>         0.0746
     25 H11         2.8040   -7.6786   -0.0542 H         1 <0>         0.3592
     26 H12         3.2227   -6.2684   -0.8301 H         1 <0>         0.3533
     27 H13         1.0552   -2.9792   -2.8418 H         1 <0>         0.0714
     28 H14        -0.4736   -3.7734   -2.3940 H         1 <0>         0.0698
     29 H15        -0.4988   -2.2259   -3.2732 H         1 <0>         0.0745
@<TRIPOS>BOND
     1    1    2 1
     2    1   15 1
     3    1   16 1
     4    1   17 1
     5    2    7 ar
     6    2    3 ar
     7    3    4 ar
     8    3   18 1
     9    4    5 ar
    10    4   14 1
    11    5    6 ar
    12    5    9 1
    13    6    7 ar
    14    6    8 1
    15    7   19 1
    16    8   20 1
    17    8   21 1
    18    8   22 1
    19    9   10 1
    20   10   11 2
    21   10   12 1
    22   12   13 1
    23   12   23 1
    24   12   24 1
    25   13   25 1
    26   13   26 1
    27   14   27 1
    28   14   28 1
    29   14   29 1
@<TRIPOS>MOLECULE
ZINC42116887
   31    32     0     0     0
SMALL
USER_CHARGES

@<TRIPOS>ATOM
      1 C1         -0.0187    1.5258    0.0104 C.3       1 <0>        -0.1489
      2 C2          0.0021   -0.0041    0.0020 C.3       1 <0>        -0.1382
      3 C3          0.7421   -0.5109    1.2415 C.3       1 <0>         0.1016
      4 N1          0.7619   -1.9757    1.2335 N.am      1 <0>        -0.5438
      5 C4         -0.2286   -2.7712    1.8135 C.ar      1 <0>         0.1083
      6 C5          0.0726   -4.1155    1.6400 C.ar      1 <0>        -0.1092
      7 C6         -0.7623   -5.0946    2.1303 C.ar      1 <0>        -0.0544
      8 C7         -1.9182   -4.7428    2.8057 C.ar      1 <0>        -0.0787
      9 C8         -2.2307   -3.4080    2.9858 C.ar      1 <0>        -0.1154
     10 C9         -1.3955   -2.4232    2.4946 C.ar      1 <0>         0.0830
     11 F1         -1.7084   -1.1214    2.6750 F         1 <0>        -0.1353
     12 C10        -2.8341   -5.8121    3.3429 C.3       1 <0>        -0.1131
     13 C11         1.3770   -4.1644    0.8781 C.3       1 <0>         0.1076
     14 H1          1.2413   -4.6674   -0.0793 H         1 <0>         0.1357
     15 C12         1.7324   -2.7088    0.6621 C.2       1 <0>         0.4892
     16 O1          2.7104   -2.2841    0.0841 O.2       1 <0>        -0.4919
     17 N2          2.4114   -4.8415    1.6717 N.3       1 <0>        -0.8065
     18 H2          1.0039    1.9031    0.0027 H         1 <0>         0.0581
     19 H3         -0.5459    1.8868   -0.8726 H         1 <0>         0.0621
     20 H4         -0.5289    1.8773    0.9072 H         1 <0>         0.0588
     21 H5         -1.0205   -0.3814    0.0098 H         1 <0>         0.0666
     22 H6          0.5123   -0.3556   -0.8948 H         1 <0>         0.0669
     23 H7          1.7647   -0.1336    1.2338 H         1 <0>         0.0910
     24 H8          0.2319   -0.1594    2.1383 H         1 <0>         0.0915
     25 H9         -0.5157   -6.1363    1.9877 H         1 <0>         0.1414
     26 H10        -3.1328   -3.1338    3.5125 H         1 <0>         0.1453
     27 H11        -2.5362   -6.0685    4.3596 H         1 <0>         0.0766
     28 H12        -3.8599   -5.4434    3.3470 H         1 <0>         0.0710
     29 H13        -2.7688   -6.6977    2.7108 H         1 <0>         0.0733
     30 H14         3.2859   -4.8783    1.1697 H         1 <0>         0.3583
     31 H15         2.5281   -4.3956    2.5692 H         1 <0>         0.3490
@<TRIPOS>BOND
     1    1    2 1
     2    1   18 1
     3    1   19 1
     4    1   20 1
     5    2    3 1
     6    2   21 1
     7    2   22 1
     8    3    4 1
     9    3   23 1
    10    3   24 1
    11    4   15 am
    12    4    5 1
    13    5   10 ar
    14    5    6 ar
    15    6    7 ar
    16    6   13 1
    17    7    8 ar
    18    7   25 1
    19    8    9 ar
    20    8   12 1
    21    9   10 ar
    22    9   26 1
    23   10   11 1
    24   12   27 1
    25   12   28 1
    26   12   29 1
    27   13   14 1
    28   13   15 1
    29   13   17 1
    30   15   16 2
    31   17   30 1
    32   17   31 1
@<TRIPOS>MOLECULE
ZINC01431474
   28    29     0     0     0
SMALL
USER_CHARGES
[2-(2,4-dichlorophenyl)-4-(hydroxymethyl)-5H-oxazol-4-yl]methanol
@<TRIPOS>ATOM
      1 C1          2.4031    0.0342   -0.0207 C.ar      1 <0>        -0.1145
      2 C2          1.2228   -0.6795   -0.0133 C.ar      1 <0>        -0.0549
      3 C3          0.0021   -0.0041    0.0020 C.ar      1 <0>        -0.0350
      4 C4         -0.0169    1.3925    0.0097 C.ar      1 <0>         0.0137
      5 C5          1.1713    2.0958    0.0021 C.ar      1 <0>        -0.1123
      6 C6          2.3789    1.4189   -0.0130 C.ar      1 <0>        -0.0035
      7 Cl1         3.8690    2.3095   -0.0231 Cl        1 <0>        -0.0481
      8 Cl2        -1.5307    2.2421    0.0215 Cl        1 <0>         0.0022
      9 C7         -1.2668   -0.7639    0.0105 C.2       1 <0>         0.3192
     10 N1         -2.4323   -0.1955    0.0252 N.2       1 <0>        -0.4479
     11 C8         -3.4655   -1.2493    0.0389 C.3       1 <0>         0.0415
     12 C9         -2.6419   -2.5028    0.4225 C.3       1 <0>         0.0340
     13 O1         -1.3182   -2.1123   -0.0020 O.3       1 <0>        -0.3362
     14 C10        -4.5337   -0.9536    1.0936 C.3       1 <0>         0.1070
     15 O2         -5.1816    0.2815    0.7821 O.3       1 <0>        -0.5339
     16 C11        -4.0974   -1.4131   -1.3449 C.3       1 <0>         0.0993
     17 O3         -4.6312   -0.1597   -1.7762 O.3       1 <0>        -0.5332
     18 H1          3.3483   -0.4881   -0.0322 H         1 <0>         0.1484
     19 H2          1.2435   -1.7593   -0.0189 H         1 <0>         0.1520
     20 H3          1.1586    3.1757    0.0077 H         1 <0>         0.1523
     21 H4         -2.6759   -2.6796    1.4975 H         1 <0>         0.0943
     22 H5         -2.9845   -3.3796   -0.1271 H         1 <0>         0.1187
     23 H6         -5.2693   -1.7579    1.1012 H         1 <0>         0.0512
     24 H7         -4.0650   -0.8806    2.0749 H         1 <0>         0.0458
     25 H8         -5.8725    0.5326    1.4104 H         1 <0>         0.3718
     26 H9         -3.3395   -1.7482   -2.0530 H         1 <0>         0.0436
     27 H10        -4.8982   -2.1508   -1.2936 H         1 <0>         0.0527
     28 H11        -5.0484   -0.1890   -2.6481 H         1 <0>         0.3719
@<TRIPOS>BOND
     1    1    6 ar
     2    1    2 ar
     3    1   18 1
     4    2    3 ar
     5    2   19 1
     6    3    4 ar
     7    3    9 1
     8    4    5 ar
     9    4    8 1
    10    5    6 ar
    11    5   20 1
    12    6    7 1
    13    9   13 1
    14    9   10 2
    15   10   11 1
    16   11   12 1
    17   11   14 1
    18   11   16 1
    19   12   13 1
    20   12   21 1
    21   12   22 1
    22   14   15 1
    23   14   23 1
    24   14   24 1
    25   15   25 1
    26   16   17 1
    27   16   26 1
    28   16   27 1
    29   17   28 1
@<TRIPOS>MOLECULE
ZINC31911884
   29    31     0     0     0
SMALL
USER_CHARGES
(S)-(6-bromoimidazo[1,2-a]pyridin-3-yl)-(3-pyridyl)methanamine
@<TRIPOS>ATOM
      1 C1         -0.0167    1.3825    0.0096 C.ar      1 <0>        -0.1679
      2 C2          0.0021   -0.0041    0.0020 C.ar      1 <0>        -0.0695
      3 C3          1.2301   -0.6472   -0.0132 C.ar      1 <0>        -0.1266
      4 C4          2.3867    0.1096   -0.0201 C.ar      1 <0>         0.1204
      5 N1          2.3308    1.4270   -0.0125 N.ar      1 <0>        -0.4792
      6 C5          1.1806    2.0722    0.0019 C.ar      1 <0>         0.0999
      7 C6          1.3030   -2.1524   -0.0224 C.3       1 <0>         0.2073
      8 H1          0.3637   -2.5797    0.3586 H         1 <0>         0.0975
      9 C7          1.5607   -2.6342   -1.4269 C.2       1 <0>        -0.0949
     10 C8          2.7654   -2.7447   -2.0285 C.2       1 <0>         0.0469
     11 N2          2.5825   -3.2080   -3.2672 N.2       1 <0>        -0.4767
     12 C9          1.2861   -3.3897   -3.4767 C.2       1 <0>         0.2273
     13 N3          0.6179   -3.0359   -2.3335 N.pl3     1 <0>        -0.3514
     14 C10        -0.7430   -3.1253   -2.2721 C.2       1 <0>         0.0937
     15 C11        -1.4516   -3.5635   -3.3348 C.2       1 <0>        -0.1131
     16 C12        -0.7946   -3.9334   -4.5207 C.2       1 <0>        -0.0850
     17 C13         0.5608   -3.8486   -4.5945 C.2       1 <0>        -0.0630
     18 Br1        -3.3359   -3.6800   -3.2266 Br        1 <0>        -0.0058
     19 N4          2.3948   -2.5951    0.8551 N.3       1 <0>        -0.8047
     20 H2         -0.9554    1.9166    0.0170 H         1 <0>         0.1382
     21 H3         -0.9181   -0.5695    0.0081 H         1 <0>         0.1301
     22 H4          3.3473   -0.3837   -0.0323 H         1 <0>         0.1525
     23 H5          1.1745    3.1522    0.0074 H         1 <0>         0.1585
     24 H6          3.7177   -2.5008   -1.5813 H         1 <0>         0.1817
     25 H7         -1.2575   -2.8434   -1.3653 H         1 <0>         0.1693
     26 H8         -1.3634   -4.2830   -5.3696 H         1 <0>         0.1549
     27 H9          1.0763   -4.1299   -5.5010 H         1 <0>         0.1630
     28 H10         2.4480   -3.6938    0.8484 H         1 <0>         0.3538
     29 H11         3.3470   -2.1796    0.4937 H         1 <0>         0.3427
@<TRIPOS>BOND
     1    1    6 ar
     2    1    2 ar
     3    1   20 1
     4    2    3 ar
     5    2   21 1
     6    3    4 ar
     7    3    7 1
     8    4    5 ar
     9    4   22 1
    10    5    6 ar
    11    6   23 1
    12    7    8 1
    13    7    9 1
    14    7   19 1
    15    9   13 1
    16    9   10 2
    17   10   11 1
    18   10   24 1
    19   11   12 2
    20   12   17 1
    21   12   13 1
    22   13   14 1
    23   14   15 2
    24   14   25 1
    25   15   16 1
    26   15   18 1
    27   16   17 2
    28   16   26 1
    29   17   27 1
    30   19   28 1
    31   19   29 1
@<TRIPOS>MOLECULE
ZINC37333787
   35    36     0     0     0
SMALL
USER_CHARGES

@<TRIPOS>ATOM
      1 C1         -0.0167    1.3810    0.0096 C.ar      1 <0>        -0.0349
      2 C2          1.1642    2.0962    0.0022 C.ar      1 <0>        -0.1234
      3 C3          2.3816    1.4289   -0.0130 C.ar      1 <0>         0.2558
      4 C4          2.4043    0.0251   -0.0207 C.ar      1 <0>        -0.0430
      5 C5          1.2009   -0.6842   -0.0130 C.ar      1 <0>        -0.0150
      6 C6          0.0021   -0.0041    0.0020 C.ar      1 <0>        -0.1888
      7 C7         -1.2949   -0.7714    0.0102 C.3       1 <0>         0.5110
      8 F1         -2.3678    0.1264    0.0253 F         1 <0>        -0.1736
      9 F2         -1.3714   -1.5703   -1.1357 F         1 <0>        -0.1737
     10 F3         -1.3497   -1.5825    1.1487 F         1 <0>        -0.1734
     11 C8          3.6533   -0.6752   -0.0368 C.1       1 <0>         0.2595
     12 N1          4.6441   -1.2307   -0.0496 N.1       1 <0>        -0.4028
     13 N2          3.5721    2.1471   -0.0209 N.pl3     1 <0>        -0.6850
     14 C9          4.1976    2.5454   -1.2893 C.3       1 <0>         0.1407
     15 C10         5.6500    2.0583   -1.2972 C.3       1 <0>        -0.1391
     16 C11         6.3666    2.5832   -0.0509 C.3       1 <0>        -0.1059
     17 C12         5.6803    2.0358    1.2027 C.3       1 <0>        -0.1299
     18 H1          5.6983    0.9461    1.1809 H         1 <0>         0.0987
     19 C13         4.2253    2.5274    1.2390 C.3       1 <0>         0.1646
     20 C14         6.4067    2.5264    2.4286 C.2       1 <0>         0.5250
     21 O1          5.8215    3.1970    3.2524 O.2       1 <0>        -0.5408
     22 N3          7.7066    2.2199    2.6094 N.am      1 <0>        -0.8539
     23 H2         -0.9611    1.9048    0.0260 H         1 <0>         0.1497
     24 H3          1.1409    3.1760    0.0078 H         1 <0>         0.1494
     25 H4          1.2098   -1.7641   -0.0192 H         1 <0>         0.1454
     26 H5          3.6564    2.0943   -2.1211 H         1 <0>         0.0751
     27 H6          4.1758    3.6312   -1.3824 H         1 <0>         0.0639
     28 H7          5.6682    0.9685   -1.2954 H         1 <0>         0.0670
     29 H8          6.1534    2.4296   -2.1898 H         1 <0>         0.0789
     30 H9          7.4070    2.2585   -0.0665 H         1 <0>         0.0679
     31 H10         6.3264    3.6724   -0.0406 H         1 <0>         0.0728
     32 H11         4.2058    3.6118    1.3479 H         1 <0>         0.0734
     33 H12         3.7025    2.0646    2.0759 H         1 <0>         0.0793
     34 H13         8.1747    1.6836    1.9505 H         1 <0>         0.4019
     35 H14         8.1742    2.5357    3.3984 H         1 <0>         0.4033
@<TRIPOS>BOND
     1    1    6 ar
     2    1    2 ar
     3    1   23 1
     4    2    3 ar
     5    2   24 1
     6    3    4 ar
     7    3   13 1
     8    4    5 ar
     9    4   11 1
    10    5    6 ar
    11    5   25 1
    12    6    7 1
    13    7    8 1
    14    7    9 1
    15    7   10 1
    16   11   12 3
    17   13   19 1
    18   13   14 1
    19   14   15 1
    20   14   26 1
    21   14   27 1
    22   15   16 1
    23   15   28 1
    24   15   29 1
    25   16   17 1
    26   16   30 1
    27   16   31 1
    28   17   18 1
    29   17   19 1
    30   17   20 1
    31   19   32 1
    32   19   33 1
    33   20   21 2
    34   20   22 am
    35   22   34 1
    36   22   35 1
@<TRIPOS>MOLECULE
ZINC49010140
   44    45     0     0     0
SMALL
USER_CHARGES

@<TRIPOS>ATOM
      1 C1          2.4517   -1.8789    4.1821 C.3       1 <0>        -0.1487
      2 C2          1.5232   -1.6570    2.9864 C.3       1 <0>        -0.0956
      3 H1          0.4884   -1.6389    3.3284 H         1 <0>         0.0845
      4 C3          1.8627   -0.3234    2.3177 C.3       1 <0>        -0.1126
      5 C4          0.9342   -0.1015    1.1220 C.3       1 <0>        -0.1190
      6 C5          1.1187   -1.2386    0.1151 C.3       1 <0>        -0.1288
      7 C6          0.7792   -2.5722    0.7839 C.3       1 <0>         0.1713
      8 H2          0.9107   -3.3822    0.0665 H         1 <0>         0.0493
      9 C7          1.7077   -2.7941    1.9795 C.3       1 <0>        -0.1246
     10 N1         -0.6116   -2.5478    1.2435 N.pl3     1 <0>        -0.6608
     11 C8         -1.6075   -1.7511    0.5227 C.3       1 <0>         0.1011
     12 C9         -0.9890   -3.2860    2.3718 C.ar      1 <0>         0.1720
     13 C10        -1.4679   -2.6365    3.4994 C.ar      1 <0>        -0.1202
     14 C11        -1.8405   -3.3675    4.6124 C.ar      1 <0>        -0.0635
     15 C12        -1.7372   -4.7462    4.6052 C.ar      1 <0>        -0.6272
     16 C13        -1.2607   -5.4020    3.4851 C.ar      1 <0>        -0.0938
     17 C14        -0.8898   -4.6772    2.3628 C.ar      1 <0>         0.1782
     18 N2         -0.4120   -5.3396    1.2254 N.pl3     1 <0>        -0.8746
     19 S1         -2.2137   -5.6701    6.0279 S.o2      1 <0>         2.5004
     20 O1         -1.4515   -6.8672    5.9548 O.2       1 <0>        -0.9408
     21 O2         -2.0483   -4.7714    7.1161 O.2       1 <0>        -0.9386
     22 C15        -3.9734   -6.0338    5.7798 C.3       1 <0>        -0.6516
     23 H3          3.4865   -1.8970    3.8401 H         1 <0>         0.0513
     24 H4          2.3202   -1.0688    4.8994 H         1 <0>         0.0543
     25 H5          2.2098   -2.8289    4.6585 H         1 <0>         0.0536
     26 H6          1.7313    0.4867    3.0350 H         1 <0>         0.0600
     27 H7          2.8975   -0.3415    1.9757 H         1 <0>         0.0585
     28 H8         -0.1006   -0.0834    1.4640 H         1 <0>         0.0686
     29 H9          1.1761    0.8485    0.6456 H         1 <0>         0.0594
     30 H10         0.4572   -1.0805   -0.7367 H         1 <0>         0.0673
     31 H11         2.1535   -1.2567   -0.2269 H         1 <0>         0.0728
     32 H12         2.7425   -2.8122    1.6375 H         1 <0>         0.0695
     33 H13         1.4658   -3.7441    2.4559 H         1 <0>         0.0672
     34 H14        -2.0017   -2.3309   -0.3119 H         1 <0>         0.0366
     35 H15        -2.4210   -1.4881    1.1988 H         1 <0>         0.0593
     36 H16        -1.1407   -0.8415    0.1447 H         1 <0>         0.0686
     37 H17        -1.5496   -1.5597    3.5085 H         1 <0>         0.1299
     38 H18        -2.2130   -2.8600    5.4899 H         1 <0>         0.1379
     39 H19        -1.1810   -6.4791    3.4831 H         1 <0>         0.1380
     40 H20        -0.1495   -4.8309    0.4424 H         1 <0>         0.3997
     41 H21        -0.3436   -6.3072    1.2206 H         1 <0>         0.3981
     42 H22        -4.0996   -6.6106    4.8636 H         1 <0>         0.1302
     43 H23        -4.3483   -6.6094    6.6261 H         1 <0>         0.1312
     44 H24        -4.5298   -5.0998    5.7007 H         1 <0>         0.1313
@<TRIPOS>BOND
     1    1    2 1
     2    1   23 1
     3    1   24 1
     4    1   25 1
     5    2    3 1
     6    2    9 1
     7    2    4 1
     8    4    5 1
     9    4   26 1
    10    4   27 1
    11    5    6 1
    12    5   28 1
    13    5   29 1
    14    6    7 1
    15    6   30 1
    16    6   31 1
    17    7    8 1
    18    7    9 1
    19    7   10 1
    20    9   32 1
    21    9   33 1
    22   10   11 1
    23   10   12 1
    24   11   34 1
    25   11   35 1
    26   11   36 1
    27   12   17 ar
    28   12   13 ar
    29   13   14 ar
    30   13   37 1
    31   14   15 ar
    32   14   38 1
    33   15   16 ar
    34   15   19 1
    35   16   17 ar
    36   16   39 1
    37   17   18 1
    38   18   40 1
    39   18   41 1
    40   19   20 2
    41   19   21 2
    42   19   22 1
    43   22   42 1
    44   22   43 1
    45   22   44 1
@<TRIPOS>MOLECULE
ZINC37959021
   45    47     0     0     0
SMALL
USER_CHARGES

@<TRIPOS>ATOM
      1 C1          0.6042    2.2405   -0.0618 C.ar      1 <0>        -0.1225
      2 C2          1.9304    2.6211   -0.1522 C.ar      1 <0>        -0.1311
      3 C3          2.9209    1.6622   -0.1305 C.ar      1 <0>        -0.1058
      4 C4          2.5982    0.3130   -0.0256 C.ar      1 <0>        -0.0351
      5 C5          1.2805   -0.0648    0.0450 C.ar      1 <0>        -0.0650
      6 C6          0.2826    0.9032    0.0381 C.ar      1 <0>        -0.1281
      7 C7          0.8475   -1.5059    0.1017 C.3       1 <0>        -0.0880
      8 C8          1.6017   -2.2599    1.2004 C.3       1 <0>        -0.1012
      9 C9          2.8292   -2.9063    0.5654 C.3       1 <0>        -0.1211
     10 C10         3.3511   -2.0189   -0.5663 C.3       1 <0>        -0.1003
     11 C11         3.7470   -0.6649    0.0200 C.3       1 <0>         0.0895
     12 C12         4.9024   -0.1050   -0.7690 C.2       1 <0>         0.4828
     13 O1          5.9723    0.0997   -0.2213 O.co2     1 <0>        -0.6953
     14 O2          4.7673    0.1433   -1.9550 O.co2     1 <0>        -0.6680
     15 N1          4.1653   -0.8497    1.4160 N.3       1 <0>        -0.5133
     16 C13         5.2527   -1.7265    1.5018 C.3       1 <0>         0.0129
     17 C14         5.5769   -2.0826    2.9715 C.3       1 <0>        -0.1378
     18 C15         6.2781   -0.9108    3.6105 C.3       1 <0>        -0.0066
     19 N2          5.3549    0.0081    4.3118 N.4       1 <0>        -0.5085
     20 C16         4.1121    0.2623    3.5573 C.3       1 <0>        -0.0022
     21 C17         4.3716    0.4525    2.0840 C.3       1 <0>         0.0158
     22 H1         -0.1760    2.9874   -0.0649 H         1 <0>         0.1179
     23 H2          2.1895    3.6659   -0.2398 H         1 <0>         0.1177
     24 H3          3.9566    1.9612   -0.1959 H         1 <0>         0.1216
     25 H4         -0.7530    0.6055    0.1115 H         1 <0>         0.1170
     26 H5         -0.2223   -1.5508    0.3058 H         1 <0>         0.0622
     27 H6          1.0482   -1.9784   -0.8598 H         1 <0>         0.0801
     28 H7          1.9126   -1.5635    1.9792 H         1 <0>         0.0725
     29 H8          0.9588   -3.0295    1.6277 H         1 <0>         0.0530
     30 H9          3.6067   -3.0270    1.3197 H         1 <0>         0.0787
     31 H10         2.5585   -3.8832    0.1649 H         1 <0>         0.0483
     32 H11         4.2213   -2.4869   -1.0267 H         1 <0>         0.0594
     33 H12         2.5691   -1.8800   -1.3128 H         1 <0>         0.0767
     34 H13         5.0172   -2.6408    0.9572 H         1 <0>         0.0913
     35 H14         6.1256   -1.2573    1.0479 H         1 <0>         0.0978
     36 H15         4.6523   -2.2927    3.5091 H         1 <0>         0.0823
     37 H16         6.2263   -2.9575    3.0009 H         1 <0>         0.1033
     38 H17         7.0083   -1.2876    4.3266 H         1 <0>         0.1212
     39 H18         6.8057   -0.3537    2.8363 H         1 <0>         0.1321
     40 H19         5.1157   -0.3921    5.2066 H         1 <0>         0.4193
     41 H20         3.4370   -0.5829    3.6918 H         1 <0>         0.1333
     42 H21         3.6358    1.1600    3.9517 H         1 <0>         0.1237
     43 H22         5.3973    0.7876    1.9302 H         1 <0>         0.0780
     44 H23         3.6774    1.1889    1.6791 H         1 <0>         0.1187
     45 H24         5.8264    0.8866    4.4668 H         1 <0>         0.4229
@<TRIPOS>BOND
     1    1    6 ar
     2    1    2 ar
     3    1   22 1
     4    2    3 ar
     5    2   23 1
     6    3    4 ar
     7    3   24 1
     8    4   11 1
     9    4    5 ar
    10    5    6 ar
    11    5    7 1
    12    6   25 1
    13    7    8 1
    14    7   26 1
    15    7   27 1
    16    8    9 1
    17    8   28 1
    18    8   29 1
    19    9   10 1
    20    9   30 1
    21    9   31 1
    22   10   11 1
    23   10   32 1
    24   10   33 1
    25   11   12 1
    26   11   15 1
    27   12   13 2
    28   12   14 1
    29   15   21 1
    30   15   16 1
    31   16   17 1
    32   16   34 1
    33   16   35 1
    34   17   18 1
    35   17   36 1
    36   17   37 1
    37   18   19 1
    38   18   38 1
    39   18   39 1
    40   19   20 1
    41   19   40 1
    42   19   45 1
    43   20   21 1
    44   20   41 1
    45   20   42 1
    46   21   43 1
    47   21   44 1
@<TRIPOS>MOLECULE
ZINC02890034
   37    39     0     0     0
SMALL
USER_CHARGES
N-(3-cyano-4,5,6,7-tetrahydrobenzothiophen-2-yl)-2-methyl-5-oxo-pyrazolidine-3-carboxamide
@<TRIPOS>ATOM
      1 C1          2.6721    1.1897   -1.8300 C.3       1 <0>        -0.0176
      2 N1          2.4137    1.1079   -0.3863 N.3       1 <0>        -0.2591
      3 C2          1.2803    1.9798    0.0005 C.3       1 <0>         0.0327
      4 H1          1.2120    2.8453   -0.6586 H         1 <0>         0.1067
      5 C3          1.6798    2.4060    1.4340 C.3       1 <0>        -0.1516
      6 C4          3.1887    2.2351    1.4110 C.2       1 <0>         0.5215
      7 O1          3.9696    2.6818    2.2243 O.2       1 <0>        -0.5091
      8 N2          3.5062    1.5008    0.3286 N.am      1 <0>        -0.5748
      9 C5         -0.0144    1.2087    0.0087 C.2       1 <0>         0.5254
     10 O2          0.0021   -0.0041    0.0020 O.2       1 <0>        -0.4590
     11 N3         -1.1906    1.8666    0.0178 N.am      1 <0>        -0.6184
     12 C6         -2.3831    1.1563    0.0196 C.2       1 <0>         0.0870
     13 C7         -3.6794    1.6490    0.0341 C.2       1 <0>        -0.1253
     14 C8         -4.7652    0.6843    0.0280 C.2       1 <0>        -0.0614
     15 C9         -4.3828   -0.6119    0.0201 C.2       1 <0>        -0.2041
     16 S1         -2.6132   -0.5610    0.0120 S.3       1 <0>         0.2592
     17 C10        -5.2731   -1.8161    0.0198 C.3       1 <0>        -0.0372
     18 C11        -6.6902   -1.3697    0.4082 C.3       1 <0>        -0.1160
     19 C12        -7.0639   -0.1377   -0.4210 C.3       1 <0>        -0.1200
     20 C13        -6.2400    1.0672    0.0366 C.3       1 <0>        -0.0624
     21 C14        -3.9380    3.0574    0.0505 C.1       1 <0>         0.2667
     22 N4         -4.1431    4.1746    0.0635 N.1       1 <0>        -0.4223
     23 H2          2.9149    2.2180   -2.0980 H         1 <0>         0.0472
     24 H3          3.5088    0.5400   -2.0868 H         1 <0>         0.0907
     25 H4          1.7842    0.8718   -2.3766 H         1 <0>         0.0939
     26 H5          1.4093    3.4455    1.6193 H         1 <0>         0.1222
     27 H6          1.2261    1.7478    2.1750 H         1 <0>         0.1237
     28 H7          4.4169    1.2748    0.0829 H         1 <0>         0.4288
     29 H8         -1.2037    2.8365    0.0232 H         1 <0>         0.4222
     30 H9         -5.2879   -2.2616   -0.9749 H         1 <0>         0.0856
     31 H10        -4.9064   -2.5441    0.7434 H         1 <0>         0.0842
     32 H11        -6.7164   -1.1181    1.4685 H         1 <0>         0.0695
     33 H12        -7.3972   -2.1743    0.2061 H         1 <0>         0.0756
     34 H13        -8.1244    0.0784   -0.2908 H         1 <0>         0.0717
     35 H14        -6.8615   -0.3361   -1.4735 H         1 <0>         0.0685
     36 H15        -6.5378    1.3516    1.0458 H         1 <0>         0.0805
     37 H16        -6.4042    1.9040   -0.6423 H         1 <0>         0.0746
@<TRIPOS>BOND
     1    1    2 1
     2    1   23 1
     3    1   24 1
     4    1   25 1
     5    2    8 1
     6    2    3 1
     7    3    4 1
     8    3    5 1
     9    3    9 1
    10    5    6 1
    11    5   26 1
    12    5   27 1
    13    6    7 2
    14    6    8 am
    15    8   28 1
    16    9   10 2
    17    9   11 am
    18   11   12 1
    19   11   29 1
    20   12   16 1
    21   12   13 2
    22   13   14 1
    23   13   21 1
    24   14   20 1
    25   14   15 2
    26   15   16 1
    27   15   17 1
    28   17   18 1
    29   17   30 1
    30   17   31 1
    31   18   19 1
    32   18   32 1
    33   18   33 1
    34   19   20 1
    35   19   34 1
    36   19   35 1
    37   20   36 1
    38   20   37 1
    39   21   22 3
@<TRIPOS>MOLECULE
ZINC37393517
   32    33     0     0     0
SMALL
USER_CHARGES

@<TRIPOS>ATOM
      1 C1         -0.0168    1.3877    0.0097 C.ar      1 <0>        -0.1767
      2 C2          1.1644    2.0943    0.0022 C.ar      1 <0>        -0.0150
      3 C3          2.3850    1.4128   -0.0131 C.ar      1 <0>        -0.1326
      4 C4          2.4009    0.0134   -0.0207 C.ar      1 <0>         0.0744
      5 C5          1.2143   -0.6869   -0.0131 C.ar      1 <0>        -0.2591
      6 C6          0.0021   -0.0041    0.0020 C.ar      1 <0>         0.3178
      7 N1         -1.1948   -0.7145    0.0096 N.2       1 <0>        -1.0979
      8 S1         -1.1748   -2.3704    0.0005 S.o2      1 <0>         2.7006
      9 O1         -0.6310   -2.7631   -1.2522 O.2       1 <0>        -1.0246
     10 O2         -0.6073   -2.7765    1.2383 O.2       1 <0>        -1.0246
     11 N2         -2.7507   -2.8791    0.0128 N.pl3     1 <0>        -1.0013
     12 C7         -3.4604   -3.1124    1.2800 C.3       1 <0>         0.1042
     13 C8         -4.7981   -2.3668    1.2319 C.3       1 <0>        -0.0213
     14 N3         -5.5435   -2.7775    0.0354 N.4       1 <0>        -0.5005
     15 C9         -4.8175   -2.3647   -1.1723 C.3       1 <0>        -0.0210
     16 C10        -3.4825   -3.1048   -1.2433 C.3       1 <0>         0.1035
     17 Cl1         3.9133   -0.8388   -0.0402 Cl        1 <0>        -0.0753
     18 C11         3.6158    2.1448   -0.0214 C.1       1 <0>         0.2723
     19 N4          4.5921    2.7255   -0.0280 N.1       1 <0>        -0.4465
     20 H1         -0.9598    1.9140    0.0260 H         1 <0>         0.1300
     21 H2          1.1483    3.1742    0.0077 H         1 <0>         0.1305
     22 H3          1.2251   -1.7668   -0.0194 H         1 <0>         0.1156
     23 H4         -3.6403   -4.1798    1.4080 H         1 <0>         0.0866
     24 H5         -2.8614   -2.7369    2.1097 H         1 <0>         0.1308
     25 H6         -5.3797   -2.6059    2.1223 H         1 <0>         0.1392
     26 H7         -4.6146   -1.2930    1.1950 H         1 <0>         0.1408
     27 H8         -5.6508   -3.7808    0.0353 H         1 <0>         0.4241
     28 H9         -5.4134   -2.6022   -2.0536 H         1 <0>         0.1395
     29 H10        -4.6334   -1.2909   -1.1365 H         1 <0>         0.1407
     30 H11        -2.8981   -2.7242   -2.0811 H         1 <0>         0.1310
     31 H12        -3.6647   -4.1714   -1.3745 H         1 <0>         0.0862
     32 H13        -6.4548   -2.3443    0.0431 H         1 <0>         0.4286
@<TRIPOS>BOND
     1    1    6 ar
     2    1    2 ar
     3    1   20 1
     4    2    3 ar
     5    2   21 1
     6    3    4 ar
     7    3   18 1
     8    4    5 ar
     9    4   17 1
    10    5    6 ar
    11    5   22 1
    12    6    7 1
    13    7    8 1
    14    8    9 2
    15    8   10 2
    16    8   11 1
    17   11   16 1
    18   11   12 1
    19   12   13 1
    20   12   23 1
    21   12   24 1
    22   13   14 1
    23   13   25 1
    24   13   26 1
    25   14   15 1
    26   14   27 1
    27   14   32 1
    28   15   16 1
    29   15   28 1
    30   15   29 1
    31   16   30 1
    32   16   31 1
    33   18   19 3
@<TRIPOS>MOLECULE
ZINC42747547
   45    46     0     0     0
SMALL
USER_CHARGES

@<TRIPOS>ATOM
      1 C1         -0.2004    0.9602   -0.0375 C.3       1 <0>        -0.1771
      2 C2          0.0990   -0.5296    0.1408 C.3       1 <0>         0.1514
      3 H1         -0.8303   -1.0701    0.3205 H         1 <0>         0.0747
      4 C3          0.7729   -1.0728   -1.1231 C.3       1 <0>        -0.1328
      5 C4          1.1951   -2.5248   -0.8874 C.3       1 <0>        -0.1086
      6 C5          2.2041   -2.5844    0.2616 C.3       1 <0>        -0.1242
      7 H2          2.5220   -3.6159    0.4136 H         1 <0>         0.1094
      8 C6          1.5465   -2.0583    1.5413 C.3       1 <0>         0.1389
      9 N1          1.0061   -0.7166    1.2814 N.pl3     1 <0>        -0.9949
     10 S1          1.4150    0.5610    2.2525 S.o2      1 <0>         2.7754
     11 O1          2.6920    0.2627    2.7997 O.2       1 <0>        -0.9545
     12 O2          1.1653    1.7398    1.4994 O.2       1 <0>        -0.9712
     13 N2          0.3485    0.5740    3.5194 N.pl3     1 <0>        -1.0021
     14 C7         -0.8010    1.4480    3.4487 C.3       1 <0>         0.1216
     15 C8         -0.4391    2.8313    4.0434 C.3       1 <0>        -0.1401
     16 C9         -0.2915    2.7368    5.5039 C.3       1 <0>        -0.1180
     17 C10         0.8389    1.8208    5.9633 C.3       1 <0>        -0.1186
     18 C11         0.3397    0.3979    6.0155 C.3       1 <0>        -0.1245
     19 C12         0.6076   -0.3116    4.6715 C.3       1 <0>         0.1140
     20 C13         3.4014   -1.7336   -0.0757 C.2       1 <0>         0.5154
     21 O3          3.7022   -0.7999    0.6374 O.2       1 <0>        -0.5192
     22 N3          4.1379   -2.0104   -1.1700 N.am      1 <0>        -0.8589
     23 H3          0.7187    1.4875   -0.2932 H         1 <0>         0.0944
     24 H4         -0.9290    1.0912   -0.8376 H         1 <0>         0.0612
     25 H5         -0.6042    1.3634    0.8912 H         1 <0>         0.0723
     26 H6          0.0722   -1.0284   -1.9568 H         1 <0>         0.0802
     27 H7          1.6521   -0.4712   -1.3539 H         1 <0>         0.0683
     28 H8          0.3188   -3.1209   -0.6325 H         1 <0>         0.0794
     29 H9          1.6528   -2.9216   -1.7936 H         1 <0>         0.0714
     30 H10         0.7364   -2.7252    1.8366 H         1 <0>         0.0767
     31 H11         2.2881   -2.0056    2.3383 H         1 <0>         0.0972
     32 H12        -1.1023    1.5679    2.4081 H         1 <0>         0.0814
     33 H13        -1.6233    1.0127    4.0164 H         1 <0>         0.0784
     34 H14         0.4982    3.1773    3.6077 H         1 <0>         0.0669
     35 H15        -1.2290    3.5439    3.8060 H         1 <0>         0.0756
     36 H16        -0.1092    3.7362    5.8988 H         1 <0>         0.0583
     37 H17        -1.2277    2.3682    5.9232 H         1 <0>         0.0598
     38 H18         1.6702    1.8891    5.2616 H         1 <0>         0.0638
     39 H19         1.1735    2.1254    6.9549 H         1 <0>         0.0647
     40 H20         0.8534   -0.1362    6.8149 H         1 <0>         0.0751
     41 H21        -0.7321    0.3979    6.2138 H         1 <0>         0.0676
     42 H22        -0.0355   -1.1884    4.5956 H         1 <0>         0.0628
     43 H23         1.6483   -0.6345    4.6427 H         1 <0>         0.0876
     44 H24         3.8974   -2.7572   -1.7404 H         1 <0>         0.3992
     45 H25         4.9085   -1.4628   -1.3872 H         1 <0>         0.4018
@<TRIPOS>BOND
     1    1    2 1
     2    1   23 1
     3    1   24 1
     4    1   25 1
     5    2    3 1
     6    2    9 1
     7    2    4 1
     8    4    5 1
     9    4   26 1
    10    4   27 1
    11    5    6 1
    12    5   28 1
    13    5   29 1
    14    6    7 1
    15    6    8 1
    16    6   20 1
    17    8    9 1
    18    8   30 1
    19    8   31 1
    20    9   10 1
    21   10   11 2
    22   10   12 2
    23   10   13 1
    24   13   19 1
    25   13   14 1
    26   14   15 1
    27   14   32 1
    28   14   33 1
    29   15   16 1
    30   15   34 1
    31   15   35 1
    32   16   17 1
    33   16   36 1
    34   16   37 1
    35   17   18 1
    36   17   38 1
    37   17   39 1
    38   18   19 1
    39   18   40 1
    40   18   41 1
    41   19   42 1
    42   19   43 1
    43   20   21 2
    44   20   22 am
    45   22   44 1
    46   22   45 1
@<TRIPOS>MOLECULE
ZINC52004743
   40    41     0     0     0
SMALL
USER_CHARGES

@<TRIPOS>ATOM
      1 C1         -0.0184    1.5028    0.0103 C.3       1 <0>        -0.1090
      2 C2          0.0021   -0.0041    0.0020 C.2       1 <0>         0.1668
      3 C3          0.0080   -0.8179   -1.1355 C.2       1 <0>        -0.8237
      4 C4          0.0279   -2.1072   -0.7249 C.2       1 <0>         0.2092
      5 N1          0.0343   -2.1090    0.6245 N.pl3     1 <0>        -0.3596
      6 N2          0.0231   -0.7768    1.0576 N.2       1 <0>        -0.2939
      7 C5          0.0548   -3.2948    1.4847 C.3       1 <0>         0.0888
      8 C6          0.0401   -3.3230   -1.6152 C.3       1 <0>        -0.1416
      9 S1         -0.0085   -0.2626   -2.8076 S.o2      1 <0>         2.7236
     10 O1         -0.5486   -1.3241   -3.5827 O.2       1 <0>        -0.9603
     11 O2         -0.5776    1.0394   -2.7975 O.2       1 <0>        -0.9578
     12 N3          1.5687   -0.0862   -3.2805 N.pl3     1 <0>        -1.1084
     13 C7          2.4430   -1.2585   -3.3669 C.3       1 <0>         0.1676
     14 H1          2.0743   -2.0368   -2.6989 H         1 <0>         0.0872
     15 C8          2.4527   -1.7826   -4.8043 C.3       1 <0>        -0.1376
     16 C9          3.3659   -3.0069   -4.8946 C.3       1 <0>        -0.1185
     17 C10         4.7869   -2.6146   -4.4852 C.3       1 <0>        -0.1191
     18 C11         4.7772   -2.0904   -3.0478 C.3       1 <0>        -0.1529
     19 C12         3.8641   -0.8661   -2.9576 C.3       1 <0>         0.1009
     20 H2          3.8572   -0.4927   -1.9335 H         1 <0>         0.0599
     21 O3          4.3475    0.1543   -3.8334 O.3       1 <0>        -0.5568
     22 H3          1.0042    1.8801    0.0026 H         1 <0>         0.0854
     23 H4         -0.5455    1.8639   -0.8728 H         1 <0>         0.1119
     24 H5         -0.5286    1.8543    0.9071 H         1 <0>         0.0827
     25 H6          1.0875   -3.5746    1.6932 H         1 <0>         0.0833
     26 H7         -0.4577   -3.0734    2.4209 H         1 <0>         0.0967
     27 H8         -0.4500   -4.1185    0.9800 H         1 <0>         0.0938
     28 H9          1.0706   -3.6020   -1.8350 H         1 <0>         0.0939
     29 H10        -0.4598   -4.1489   -1.1091 H         1 <0>         0.0867
     30 H11        -0.4816   -3.0976   -2.5453 H         1 <0>         0.1285
     31 H12         1.9136    0.7934   -3.5003 H         1 <0>         0.4243
     32 H13         1.4404   -2.0621   -5.0960 H         1 <0>         0.0793
     33 H14         2.8215   -1.0042   -5.4724 H         1 <0>         0.0806
     34 H15         2.9971   -3.7852   -4.2265 H         1 <0>         0.0613
     35 H16         3.3728   -3.3803   -5.9186 H         1 <0>         0.0696
     36 H17         5.4374   -3.4868   -4.5495 H         1 <0>         0.0630
     37 H18         5.1557   -1.8362   -5.1533 H         1 <0>         0.0718
     38 H19         4.4085   -2.8688   -2.3798 H         1 <0>         0.0714
     39 H20         5.7896   -1.8109   -2.7562 H         1 <0>         0.0704
     40 H21         5.2452    0.4524   -3.6323 H         1 <0>         0.3803
@<TRIPOS>BOND
     1    1    2 1
     2    1   22 1
     3    1   23 1
     4    1   24 1
     5    2    6 2
     6    2    3 1
     7    3    4 2
     8    3    9 1
     9    4    5 1
    10    4    8 1
    11    5    6 1
    12    5    7 1
    13    7   25 1
    14    7   26 1
    15    7   27 1
    16    8   28 1
    17    8   29 1
    18    8   30 1
    19    9   10 2
    20    9   11 2
    21    9   12 1
    22   12   13 1
    23   12   31 1
    24   13   14 1
    25   13   19 1
    26   13   15 1
    27   15   16 1
    28   15   32 1
    29   15   33 1
    30   16   17 1
    31   16   34 1
    32   16   35 1
    33   17   18 1
    34   17   36 1
    35   17   37 1
    36   18   19 1
    37   18   38 1
    38   18   39 1
    39   19   20 1
    40   19   21 1
    41   21   40 1
@<TRIPOS>MOLECULE
ZINC61569514
   24    26     0     0     0
SMALL
USER_CHARGES

@<TRIPOS>ATOM
      1 C1         -0.0167    1.3811    0.0096 C.ar      1 <0>        -0.0577
      2 C2          1.1707    2.0896    0.0021 C.ar      1 <0>        -0.0933
      3 C3          2.3791    1.4191   -0.0135 C.ar      1 <0>        -0.0605
      4 C4          2.4058    0.0359   -0.0215 C.ar      1 <0>        -0.0778
      5 C5          1.2195   -0.6804   -0.0141 C.ar      1 <0>         0.0767
      6 C6          0.0021   -0.0041    0.0020 C.ar      1 <0>         0.0448
      7 O1         -1.0074   -0.9229    0.0057 O.3       1 <0>        -0.2984
      8 C7         -0.4037   -2.1591   -0.4194 C.3       1 <0>         0.2111
      9 O2          0.9727   -2.0230   -0.0201 O.3       1 <0>        -0.2921
     10 Br1         4.0614   -0.8775   -0.0434 Br        1 <0>        -0.0171
     11 C8          1.1470    3.5964    0.0104 C.3       1 <0>         0.1441
     12 H1          0.1746    3.9654   -0.3157 H         1 <0>         0.1460
     13 C9          1.4837    4.1275    1.3896 C.2       1 <0>         0.5321
     14 O3          0.8696    3.9374    2.4175 O.2       1 <0>        -0.4498
     15 N1          2.6081    4.8543    1.2357 N.am      1 <0>        -0.6781
     16 C10         3.0243    4.8563   -0.0358 C.2       1 <0>         0.7040
     17 O4          4.0165    5.4429   -0.4211 O.2       1 <0>        -0.5312
     18 N2          2.2191    4.1363   -0.8435 N.am      1 <0>        -0.7200
     19 H2         -0.9594    1.9079    0.0260 H         1 <0>         0.1525
     20 H3          3.3044    1.9761   -0.0197 H         1 <0>         0.1469
     21 H4         -0.8678   -3.0058    0.0863 H         1 <0>         0.1408
     22 H5         -0.4786   -2.2698   -1.5012 H         1 <0>         0.0931
     23 H6          3.0596    5.3191    1.9575 H         1 <0>         0.4376
     24 H7          2.3244    3.9991   -1.7980 H         1 <0>         0.4464
@<TRIPOS>BOND
     1    1    6 ar
     2    1    2 ar
     3    1   19 1
     4    2    3 ar
     5    2   11 1
     6    3    4 ar
     7    3   20 1
     8    4    5 ar
     9    4   10 1
    10    5    9 1
    11    5    6 ar
    12    6    7 1
    13    7    8 1
    14    8    9 1
    15    8   21 1
    16    8   22 1
    17   11   12 1
    18   11   18 1
    19   11   13 1
    20   13   14 2
    21   13   15 am
    22   15   16 am
    23   15   23 1
    24   16   17 2
    25   16   18 am
    26   18   24 1
@<TRIPOS>MOLECULE
ZINC66174374
   39    41     0     0     0
SMALL
USER_CHARGES

@<TRIPOS>ATOM
      1 C1         -0.0184    1.5028    0.0103 C.3       1 <0>        -0.0739
      2 C2          0.0021   -0.0041    0.0020 C.2       1 <0>         0.2502
      3 N1          0.0076   -0.7759   -1.0906 N.2       1 <0>        -0.5216
      4 C3          0.0262   -2.0345   -0.7496 C.2       1 <0>         0.2747
      5 O1          0.0333   -2.1066    0.5874 O.3       1 <0>        -0.0966
      6 N2          0.0229   -0.7667    1.0572 N.2       1 <0>        -0.3316
      7 C4          0.0378   -3.2062   -1.6973 C.3       1 <0>         0.2283
      8 N3          1.4226   -3.5671   -2.0107 N.am      1 <0>        -0.7438
      9 C5          1.6791   -4.5940   -2.8451 C.2       1 <0>         0.7130
     10 O2          0.7611   -5.2208   -3.3377 O.2       1 <0>        -0.5760
     11 N4          2.9531   -4.9260   -3.1334 N.am      1 <0>        -0.7343
     12 C6          3.2318   -6.0422   -4.0404 C.3       1 <0>         0.2066
     13 H1          2.4656   -6.0759   -4.8148 H         1 <0>         0.1022
     14 C7          4.5974   -5.8329   -4.6917 C.3       1 <0>        -0.1260
     15 C8          4.9658   -7.1061   -5.4625 C.3       1 <0>        -0.1160
     16 C9          5.2594   -8.2128   -4.4516 C.3       1 <0>        -0.0839
     17 C10         4.1368   -8.3304   -3.4542 C.ar      1 <0>        -0.0685
     18 C11         3.2088   -7.3319   -3.2625 C.ar      1 <0>        -0.0997
     19 C12         2.2022   -7.5013   -2.3209 C.ar      1 <0>        -0.1040
     20 C13         2.1238   -8.6623   -1.5794 C.ar      1 <0>        -0.1287
     21 C14         3.0541   -9.6657   -1.7748 C.ar      1 <0>        -0.1136
     22 C15         4.0541   -9.4990   -2.7084 C.ar      1 <0>        -0.1276
     23 H2          1.0042    1.8801    0.0026 H         1 <0>         0.0988
     24 H3         -0.5455    1.8639   -0.8728 H         1 <0>         0.0999
     25 H4         -0.5286    1.8543    0.9071 H         1 <0>         0.0935
     26 H5         -0.4624   -4.0552   -1.2315 H         1 <0>         0.1108
     27 H6         -0.4839   -2.9360   -2.6154 H         1 <0>         0.1212
     28 H7          2.1550   -3.0670   -1.6177 H         1 <0>         0.4024
     29 H8          3.6854   -4.4259   -2.7404 H         1 <0>         0.3993
     30 H9          4.5506   -4.9883   -5.3791 H         1 <0>         0.0771
     31 H10         5.3452   -5.6400   -3.9226 H         1 <0>         0.0728
     32 H11         4.1333   -7.4030   -6.1004 H         1 <0>         0.0711
     33 H12         5.8498   -6.9228   -6.0732 H         1 <0>         0.0762
     34 H13         5.3728   -9.1602   -4.9786 H         1 <0>         0.0773
     35 H14         6.1855   -7.9822   -3.9249 H         1 <0>         0.0774
     36 H15         1.4749   -6.7178   -2.1676 H         1 <0>         0.1320
     37 H16         1.3379   -8.7867   -0.8491 H         1 <0>         0.1197
     38 H17         2.9970  -10.5772   -1.1985 H         1 <0>         0.1209
     39 H18         4.7806  -10.2835   -2.8601 H         1 <0>         0.1205
@<TRIPOS>BOND
     1    1    2 1
     2    1   23 1
     3    1   24 1
     4    1   25 1
     5    2    6 2
     6    2    3 1
     7    3    4 2
     8    4    5 1
     9    4    7 1
    10    5    6 1
    11    7    8 1
    12    7   26 1
    13    7   27 1
    14    8    9 am
    15    8   28 1
    16    9   10 2
    17    9   11 am
    18   11   12 1
    19   11   29 1
    20   12   13 1
    21   12   18 1
    22   12   14 1
    23   14   15 1
    24   14   30 1
    25   14   31 1
    26   15   16 1
    27   15   32 1
    28   15   33 1
    29   16   17 1
    30   16   34 1
    31   16   35 1
    32   17   22 ar
    33   17   18 ar
    34   18   19 ar
    35   19   20 ar
    36   19   36 1
    37   20   21 ar
    38   20   37 1
    39   21   22 ar
    40   21   38 1
    41   22   39 1
@<TRIPOS>MOLECULE
ZINC37409474
   38    39     0     0     0
SMALL
USER_CHARGES

@<TRIPOS>ATOM
      1 C1         -0.0324    1.5909    0.0029 C.3       1 <0>        -0.1487
      2 C2          0.0192    0.0618   -0.0033 C.3       1 <0>        -0.1273
      3 C3         -1.4052   -0.4967    0.0115 C.3       1 <0>         0.1043
      4 H1         -1.9518   -0.0857    0.8602 H         1 <0>         0.1090
      5 C4         -1.3594   -2.0252    0.1181 C.3       1 <0>         0.0546
      6 O1         -0.8065   -2.5646   -1.0849 O.3       1 <0>        -0.3721
      7 C5         -1.5791   -2.2940   -2.2569 C.3       1 <0>         0.0742
      8 H2         -2.5896   -2.6805   -2.1240 H         1 <0>         0.0618
      9 C6         -1.6362   -0.7792   -2.4851 C.3       1 <0>         0.0762
     10 N1         -2.0910   -0.1383   -1.2402 N.am      1 <0>        -0.6033
     11 C7         -3.1054    0.7490   -1.2459 C.2       1 <0>         0.5748
     12 O2         -3.5363    1.1868   -0.1964 O.2       1 <0>        -0.5387
     13 C8         -3.6927    1.1889   -2.5247 C.ar      1 <0>        -0.2200
     14 C9         -2.8755    1.7098   -3.5314 C.ar      1 <0>        -0.0391
     15 C10        -3.4304    2.1191   -4.7239 C.ar      1 <0>        -0.1844
     16 C11        -4.7971    2.0178   -4.9318 C.ar      1 <0>        -0.0470
     17 C12        -5.6174    1.5062   -3.9477 C.ar      1 <0>        -0.2036
     18 C13        -5.0754    1.0819   -2.7406 C.ar      1 <0>         0.2657
     19 N2         -5.8982    0.5608   -1.7507 N.pl3     1 <0>        -0.8637
     20 C14        -0.9283   -2.9699   -3.4654 C.3       1 <0>        -0.1450
     21 H3          0.9823    1.9887   -0.0076 H         1 <0>         0.0562
     22 H4         -0.5687    1.9399   -0.8795 H         1 <0>         0.0491
     23 H5         -0.5476    1.9334    0.9003 H         1 <0>         0.0557
     24 H6          0.5344   -0.2807   -0.9007 H         1 <0>         0.0709
     25 H7          0.5555   -0.2873    0.8791 H         1 <0>         0.0763
     26 H8         -0.7371   -2.3126    0.9656 H         1 <0>         0.1084
     27 H9         -2.3691   -2.4107    0.2596 H         1 <0>         0.0553
     28 H10        -0.6447   -0.4098   -2.7471 H         1 <0>         0.0789
     29 H11        -2.3363   -0.5554   -3.2900 H         1 <0>         0.0998
     30 H12        -1.8101    1.7917   -3.3745 H         1 <0>         0.1238
     31 H13        -2.7973    2.5214   -5.5008 H         1 <0>         0.1258
     32 H14        -5.2225    2.3418   -5.8701 H         1 <0>         0.1268
     33 H15        -6.6813    1.4310   -4.1174 H         1 <0>         0.1271
     34 H16        -5.5296    0.3369   -0.8818 H         1 <0>         0.4054
     35 H17        -6.8415    0.4207   -1.9281 H         1 <0>         0.4013
     36 H18        -0.8847   -4.0463   -3.2999 H         1 <0>         0.0692
     37 H19        -1.5179   -2.7631   -4.3585 H         1 <0>         0.0749
     38 H20         0.0815   -2.5816   -3.5987 H         1 <0>         0.0675
@<TRIPOS>BOND
     1    1    2 1
     2    1   21 1
     3    1   22 1
     4    1   23 1
     5    2    3 1
     6    2   24 1
     7    2   25 1
     8    3    4 1
     9    3   10 1
    10    3    5 1
    11    5    6 1
    12    5   26 1
    13    5   27 1
    14    6    7 1
    15    7    8 1
    16    7    9 1
    17    7   20 1
    18    9   10 1
    19    9   28 1
    20    9   29 1
    21   10   11 am
    22   11   12 2
    23   11   13 1
    24   13   18 ar
    25   13   14 ar
    26   14   15 ar
    27   14   30 1
    28   15   16 ar
    29   15   31 1
    30   16   17 ar
    31   16   32 1
    32   17   18 ar
    33   17   33 1
    34   18   19 1
    35   19   34 1
    36   19   35 1
    37   20   36 1
    38   20   37 1
    39   20   38 1
@<TRIPOS>MOLECULE
ZINC42470033
   31    32     0     0     0
SMALL
USER_CHARGES

@<TRIPOS>ATOM
      1 C1         -0.0088    1.3677   -0.2136 C.ar      1 <0>        -0.0230
      2 C2          1.1980    2.0440   -0.2241 C.ar      1 <0>        -0.2227
      3 C3          2.3743    1.3325   -0.0135 C.ar      1 <0>         0.4115
      4 N1          2.3437    0.0253    0.1947 N.ar      1 <0>        -0.5128
      5 C4          1.2081   -0.6466    0.2103 C.ar      1 <0>         0.1899
      6 C5          0.0019   -0.0037    0.0083 C.ar      1 <0>        -0.1306
      7 Cl1        -1.4846   -0.9001    0.0320 Cl        1 <0>        -0.0556
      8 C6          1.2271   -2.1341    0.4516 C.3       1 <0>         0.1235
      9 O1          1.1249   -2.3905    1.8537 O.3       1 <0>        -0.5591
     10 N2          3.5942    2.0003   -0.0220 N.pl3     1 <0>        -0.6028
     11 C7          4.8577    1.2508   -0.0443 C.3       1 <0>         0.1199
     12 C8          5.7351    1.7289    1.1169 C.3       1 <0>        -0.1340
     13 C9          5.9036    3.2476    1.0320 C.3       1 <0>        -0.1533
     14 C10         4.5349    3.9219    1.1514 C.3       1 <0>         0.0903
     15 H1          4.0718    3.6401    2.0970 H         1 <0>         0.0604
     16 C11         3.6438    3.4687   -0.0151 C.3       1 <0>         0.1309
     17 O2          4.6965    5.3409    1.1036 O.3       1 <0>        -0.5648
     18 H2         -0.9385    1.8945   -0.3699 H         1 <0>         0.1475
     19 H3          1.2263    3.1102   -0.3940 H         1 <0>         0.1446
     20 H4          0.3859   -2.5966   -0.0647 H         1 <0>         0.0713
     21 H5          2.1600   -2.5517    0.0729 H         1 <0>         0.0680
     22 H6          1.1309   -3.3299    2.0831 H         1 <0>         0.3863
     23 H7          4.6529    0.1860    0.0668 H         1 <0>         0.0998
     24 H8          5.3720    1.4296   -0.9885 H         1 <0>         0.0654
     25 H9          5.2607    1.4678    2.0629 H         1 <0>         0.0689
     26 H10         6.7125    1.2504    1.0553 H         1 <0>         0.0805
     27 H11         6.5477    3.5874    1.8430 H         1 <0>         0.0695
     28 H12         6.3555    3.5100    0.0754 H         1 <0>         0.0741
     29 H13         4.0612    3.8246   -0.9570 H         1 <0>         0.0794
     30 H14         2.6379    3.8677    0.1153 H         1 <0>         0.0920
     31 H15         5.2525    5.6975    1.8098 H         1 <0>         0.3850
@<TRIPOS>BOND
     1    1    6 ar
     2    1    2 ar
     3    1   18 1
     4    2    3 ar
     5    2   19 1
     6    3    4 ar
     7    3   10 1
     8    4    5 ar
     9    5    6 ar
    10    5    8 1
    11    6    7 1
    12    8    9 1
    13    8   20 1
    14    8   21 1
    15    9   22 1
    16   10   16 1
    17   10   11 1
    18   11   12 1
    19   11   23 1
    20   11   24 1
    21   12   13 1
    22   12   25 1
    23   12   26 1
    24   13   14 1
    25   13   27 1
    26   13   28 1
    27   14   15 1
    28   14   16 1
    29   14   17 1
    30   16   29 1
    31   16   30 1
    32   17   31 1
@<TRIPOS>MOLECULE
ZINC49091481
   40    41     0     0     0
SMALL
USER_CHARGES

@<TRIPOS>ATOM
      1 C1          0.0274    1.4160   -0.0769 C.3       1 <0>        -0.1381
      2 C2         -0.2774   -0.0535    0.2208 C.3       1 <0>         0.1395
      3 H1         -1.3332   -0.1648    0.4680 H         1 <0>         0.0732
      4 C3          0.0551   -0.9061   -1.0077 C.3       1 <0>        -0.1302
      5 C4         -0.1192   -2.3860   -0.6589 C.3       1 <0>        -0.1120
      6 C5          0.8463   -2.7637    0.4669 C.3       1 <0>        -0.1255
      7 H2          1.8700   -2.5625    0.1510 H         1 <0>         0.1045
      8 C6          0.5228   -1.9321    1.7121 C.3       1 <0>         0.1236
      9 N1          0.5437   -0.5076    1.3515 N.am      1 <0>        -0.6106
     10 C7          1.3040    0.3650    2.0420 C.2       1 <0>         0.5233
     11 O1          1.2412    1.5510    1.7961 O.2       1 <0>        -0.5251
     12 C8          2.2323   -0.1329    3.1198 C.3       1 <0>        -0.1128
     13 H3          1.7621   -0.9571    3.6562 H         1 <0>         0.0956
     14 C9          2.5456    1.0067    4.0975 C.3       1 <0>        -0.0989
     15 C10         3.3397    0.4318    5.2724 C.3       1 <0>        -0.0946
     16 C11         4.4830   -0.3983    4.7666 C.2       1 <0>        -0.1500
     17 C12         4.5700   -0.8531    3.5578 C.2       1 <0>        -0.1585
     18 C13         3.5426   -0.6102    2.4899 C.3       1 <0>        -0.0755
     19 C14         0.6974   -4.2287    0.7869 C.2       1 <0>         0.5253
     20 O2          0.3678   -4.5755    1.9014 O.2       1 <0>        -0.5388
     21 N2          0.9304   -5.1536   -0.1653 N.am      1 <0>        -0.8530
     22 H4          1.1027    1.5465   -0.1989 H         1 <0>         0.0661
     23 H5         -0.4811    1.7139   -0.9939 H         1 <0>         0.0456
     24 H6         -0.3222    2.0343    0.7498 H         1 <0>         0.0772
     25 H7         -0.6162   -0.6436   -1.8253 H         1 <0>         0.0827
     26 H8          1.0862   -0.7225   -1.3097 H         1 <0>         0.0712
     27 H9         -1.1440   -2.5641   -0.3333 H         1 <0>         0.0735
     28 H10         0.0930   -2.9938   -1.5384 H         1 <0>         0.0734
     29 H11        -0.4671   -2.1986    2.0824 H         1 <0>         0.0818
     30 H12         1.2680   -2.1247    2.4839 H         1 <0>         0.0970
     31 H13         3.1383    1.7698    3.5930 H         1 <0>         0.0751
     32 H14         1.6155    1.4426    4.4623 H         1 <0>         0.0706
     33 H15         3.7279    1.2490    5.8805 H         1 <0>         0.0773
     34 H16         2.6840   -0.1897    5.8822 H         1 <0>         0.0756
     35 H17         5.2832   -0.6305    5.4538 H         1 <0>         0.1055
     36 H18         5.4343   -1.4479    3.3015 H         1 <0>         0.1070
     37 H19         3.3635   -1.5336    1.9391 H         1 <0>         0.0730
     38 H20         3.9121    0.1516    1.8035 H         1 <0>         0.0790
     39 H21         1.1940   -4.8763   -1.0566 H         1 <0>         0.4023
     40 H22         0.8345   -6.0966    0.0407 H         1 <0>         0.4043
@<TRIPOS>BOND
     1    1    2 1
     2    1   22 1
     3    1   23 1
     4    1   24 1
     5    2    3 1
     6    2    9 1
     7    2    4 1
     8    4    5 1
     9    4   25 1
    10    4   26 1
    11    5    6 1
    12    5   27 1
    13    5   28 1
    14    6    7 1
    15    6    8 1
    16    6   19 1
    17    8    9 1
    18    8   29 1
    19    8   30 1
    20    9   10 am
    21   10   11 2
    22   10   12 1
    23   12   13 1
    24   12   18 1
    25   12   14 1
    26   14   15 1
    27   14   31 1
    28   14   32 1
    29   15   16 1
    30   15   33 1
    31   15   34 1
    32   16   17 2
    33   16   35 1
    34   17   18 1
    35   17   36 1
    36   18   37 1
    37   18   38 1
    38   19   20 2
    39   19   21 am
    40   21   39 1
    41   21   40 1
@<TRIPOS>MOLECULE
ZINC53004219
   41    42     0     0     0
SMALL
USER_CHARGES

@<TRIPOS>ATOM
      1 C1         -2.2321    0.3454   -0.6468 C.3       1 <0>        -0.1074
      2 C2         -1.0741   -0.5633   -0.3235 C.ar      1 <0>        -0.1498
      3 C3         -0.0344   -0.7039   -1.2293 C.ar      1 <0>        -0.0468
      4 C4          1.0314   -1.5328   -0.9461 C.ar      1 <0>        -0.1982
      5 C5          1.0688   -2.2337    0.2531 C.ar      1 <0>         0.2619
      6 C6          0.0178   -2.0931    1.1725 C.ar      1 <0>        -0.2143
      7 C7         -1.0519   -1.2453    0.8731 C.ar      1 <0>        -0.0427
      8 C8          0.0448   -2.8310    2.4486 C.2       1 <0>         0.5715
      9 O1          0.1707   -4.0405    2.4490 O.2       1 <0>        -0.5362
     10 N1         -0.0700   -2.1651    3.6147 N.am      1 <0>        -0.6081
     11 C9         -0.3234   -0.7157    3.6375 C.3       1 <0>         0.0715
     12 C10         0.7030   -0.0601    4.5685 C.3       1 <0>         0.0715
     13 H1          1.6969   -0.1397    4.1282 H         1 <0>         0.0664
     14 O2          0.6858   -0.7276    5.8326 O.3       1 <0>        -0.3663
     15 C11         1.0618   -2.1056    5.7719 C.3       1 <0>         0.1011
     16 C12         0.0482   -2.8669    4.9026 C.3       1 <0>         0.0890
     17 C13         1.0675   -2.6963    7.1833 C.3       1 <0>        -0.1379
     18 C14         2.4588   -2.2277    5.1601 C.3       1 <0>        -0.1757
     19 C15         0.3470    1.4151    4.7635 C.3       1 <0>        -0.1446
     20 N2          2.1402   -3.0694    0.5401 N.pl3     1 <0>        -0.8626
     21 H2         -2.0167    1.3510   -0.2857 H         1 <0>         0.0667
     22 H3         -2.3831    0.3715   -1.7260 H         1 <0>         0.0650
     23 H4         -3.1340   -0.0291   -0.1626 H         1 <0>         0.0631
     24 H5         -0.0591   -0.1615   -2.1628 H         1 <0>         0.1268
     25 H6          1.8374   -1.6372   -1.6574 H         1 <0>         0.1279
     26 H7         -1.8625   -1.1285    1.5771 H         1 <0>         0.1249
     27 H8         -0.2192   -0.3089    2.6317 H         1 <0>         0.1038
     28 H9         -1.3303   -0.5249    4.0087 H         1 <0>         0.0791
     29 H10        -0.9219   -2.8890    5.3991 H         1 <0>         0.0774
     30 H11         0.3986   -3.8854    4.7349 H         1 <0>         0.1016
     31 H12         0.0711   -2.6107    7.6170 H         1 <0>         0.0672
     32 H13         1.3542   -3.7469    7.1363 H         1 <0>         0.0748
     33 H14         1.7811   -2.1523    7.8020 H         1 <0>         0.0697
     34 H15         3.1742   -1.6831    5.7762 H         1 <0>         0.0674
     35 H16         2.7447   -3.2785    5.1142 H         1 <0>         0.0688
     36 H17         2.4527   -1.8085    4.1539 H         1 <0>         0.0582
     37 H18        -0.6462    1.4938    5.2054 H         1 <0>         0.0671
     38 H19         1.0772    1.8806    5.4255 H         1 <0>         0.0688
     39 H20         0.3566    1.9218    3.7985 H         1 <0>         0.0748
     40 H21         2.8283   -3.2221   -0.1264 H         1 <0>         0.4018
     41 H22         2.2005   -3.5004    1.4070 H         1 <0>         0.4029
@<TRIPOS>BOND
     1    1    2 1
     2    1   21 1
     3    1   22 1
     4    1   23 1
     5    2    7 ar
     6    2    3 ar
     7    3    4 ar
     8    3   24 1
     9    4    5 ar
    10    4   25 1
    11    5    6 ar
    12    5   20 1
    13    6    7 ar
    14    6    8 1
    15    7   26 1
    16    8    9 2
    17    8   10 am
    18   10   16 1
    19   10   11 1
    20   11   12 1
    21   11   27 1
    22   11   28 1
    23   12   13 1
    24   12   14 1
    25   12   19 1
    26   14   15 1
    27   15   16 1
    28   15   17 1
    29   15   18 1
    30   16   29 1
    31   16   30 1
    32   17   31 1
    33   17   32 1
    34   17   33 1
    35   18   34 1
    36   18   35 1
    37   18   36 1
    38   19   37 1
    39   19   38 1
    40   19   39 1
    41   20   40 1
    42   20   41 1
@<TRIPOS>MOLECULE
ZINC20733403
   25    27     0     0     0
SMALL
USER_CHARGES

@<TRIPOS>ATOM
      1 C1         -0.0163    1.3513    0.0095 C.2       1 <0>        -0.1603
      2 C2          1.1833    2.0380    0.0017 C.2       1 <0>        -0.1325
      3 C3          2.3426    1.3358   -0.0131 C.2       1 <0>        -0.1393
      4 S1          1.7535   -0.3495   -0.0166 S.3       1 <0>         0.0718
      5 C4          0.0021   -0.0041    0.0020 C.2       1 <0>        -0.1685
      6 C5          3.7608    1.8454   -0.0244 C.3       1 <0>         0.0963
      7 H1          3.7424    2.9352   -0.0187 H         1 <0>         0.1118
      8 C6          4.4565    1.3669    1.2140 C.2       1 <0>        -0.2695
      9 C7          3.7836    1.0685    2.3602 C.2       1 <0>         0.0921
     10 N1          4.6793    0.6810    3.2859 N.pl3     1 <0>        -0.4476
     11 H2          4.4787    0.4117    4.1960 H         1 <0>         0.4487
     12 N2          5.9473    0.7348    2.7070 N.2       1 <0>        -0.2739
     13 C8          5.8205    1.1457    1.4443 C.2       1 <0>         0.3310
     14 N3          6.8977    1.2714    0.6366 N.2       1 <0>        -0.6013
     15 C9          7.1022    1.6191   -0.5469 C.2       1 <0>         0.4584
     16 C10         6.1612    2.1142   -1.5712 C.3       1 <0>        -0.1096
     17 S2          4.5654    1.2871   -1.5299 S.3       1 <0>        -0.1571
     18 O1          8.3859    1.5278   -0.9518 O.3       1 <0>        -0.4769
     19 H3         -0.9542    1.8866    0.0258 H         1 <0>         0.1374
     20 H4          1.1967    3.1179    0.0070 H         1 <0>         0.1365
     21 H5         -0.8275   -0.6955    0.0065 H         1 <0>         0.1880
     22 H6          2.7147    1.1321    2.5014 H         1 <0>         0.1782
     23 H7          6.0072    3.1822   -1.4172 H         1 <0>         0.1247
     24 H8          6.6062    1.9664   -2.5552 H         1 <0>         0.1511
     25 H9          8.9909    1.2027   -0.2711 H         1 <0>         0.4105
@<TRIPOS>BOND
     1    1    5 2
     2    1    2 1
     3    1   19 1
     4    2    3 2
     5    2   20 1
     6    3    4 1
     7    3    6 1
     8    4    5 1
     9    5   21 1
    10    6    7 1
    11    6   17 1
    12    6    8 1
    13    8   13 1
    14    8    9 2
    15    9   10 1
    16    9   22 1
    17   10   11 1
    18   10   12 1
    19   12   13 2
    20   13   14 1
    21   14   15 2
    22   15   16 1
    23   15   18 1
    24   16   17 1
    25   16   23 1
    26   16   24 1
    27   18   25 1
@<TRIPOS>MOLECULE
ZINC32732291
   30    30     0     0     0
SMALL
USER_CHARGES
5-bromo-N-[2-(dimethylamino)-2-oxo-ethyl]-2-hydroxy-benzamide
@<TRIPOS>ATOM
      1 C1          4.0438    9.8632    0.0132 C.3       1 <0>         0.0744
      2 N1          4.3415    8.4288    0.0030 N.am      1 <0>        -0.6159
      3 C2          5.7325    7.9695   -0.0128 C.3       1 <0>         0.0662
      4 C3          3.3356    7.5318    0.0083 C.2       1 <0>         0.5108
      5 O1          2.1840    7.9120    0.0214 O.2       1 <0>        -0.5367
      6 C4          3.6419    6.0563   -0.0021 C.3       1 <0>         0.1047
      7 N2          2.3888    5.2974    0.0063 N.am      1 <0>        -0.7333
      8 C5          2.4169    3.9499   -0.0008 C.2       1 <0>         0.5682
      9 O2          3.4823    3.3642   -0.0141 O.2       1 <0>        -0.5202
     10 C6          1.1550    3.1857    0.0077 C.ar      1 <0>        -0.1782
     11 C7         -0.0714    3.8547    0.0225 C.ar      1 <0>        -0.0137
     12 C8         -1.2471    3.1346    0.0299 C.ar      1 <0>        -0.1464
     13 C9         -1.2179    1.7487    0.0173 C.ar      1 <0>        -0.0212
     14 C10        -0.0126    1.0758    0.0080 C.ar      1 <0>        -0.2193
     15 C11         1.1797    1.7846    0.0004 C.ar      1 <0>         0.2335
     16 O3          2.3647    1.1242   -0.0145 O.3       1 <0>        -0.4684
     17 Br1        -2.9064    4.0413    0.0493 Br        1 <0>        -0.0413
     18 H1          2.9539   10.0114    0.0245 H         1 <0>         0.0903
     19 H2          4.4683   10.3322   -0.8867 H         1 <0>         0.0643
     20 H3          4.4857   10.3230    0.9095 H         1 <0>         0.0643
     21 H4          5.7554    6.8698   -0.0186 H         1 <0>         0.0838
     22 H5          6.2519    8.3424    0.8823 H         1 <0>         0.0697
     23 H6          6.2345    8.3515   -0.9139 H         1 <0>         0.0697
     24 H7          4.2154    5.8073   -0.9071 H         1 <0>         0.1004
     25 H8          4.2329    5.7982    0.8890 H         1 <0>         0.1004
     26 H9          1.4249    5.8273    0.0184 H         1 <0>         0.4311
     27 H10        -0.0985    4.9344    0.0279 H         1 <0>         0.1420
     28 H11        -2.1435    1.1922    0.0187 H         1 <0>         0.1405
     29 H12         0.0021   -0.0041    0.0020 H         1 <0>         0.1446
     30 H13         2.3814    0.0243   -0.0202 H         1 <0>         0.4358
@<TRIPOS>BOND
     1    1    2 1
     2    1   18 1
     3    1   19 1
     4    1   20 1
     5    2    3 1
     6    2    4 am
     7    3   21 1
     8    3   22 1
     9    3   23 1
    10    4    5 2
    11    4    6 1
    12    6    7 1
    13    6   24 1
    14    6   25 1
    15    7    8 am
    16    7   26 1
    17    8    9 2
    18    8   10 1
    19   10   15 ar
    20   10   11 ar
    21   11   12 ar
    22   11   27 1
    23   12   13 ar
    24   12   17 1
    25   13   14 ar
    26   13   28 1
    27   14   15 ar
    28   14   29 1
    29   15   16 1
    30   16   30 1
@<TRIPOS>MOLECULE
ZINC40304506
   42    43     0     0     0
SMALL
USER_CHARGES

@<TRIPOS>ATOM
      1 C1          0.6019   -0.2865    1.3899 C.3       1 <0>        -0.1619
      2 C2         -0.0651    0.0822    0.0632 C.3       1 <0>        -0.1131
      3 C3         -0.8846   -1.1064   -0.4434 C.3       1 <0>         0.1156
      4 H1         -1.6585   -1.3547    0.2828 H         1 <0>         0.0805
      5 C4          0.0344   -2.3154   -0.6525 C.3       1 <0>         0.0510
      6 O1         -0.6997   -3.3585   -1.2982 O.3       1 <0>        -0.3764
      7 C5         -1.1743   -3.0188   -2.6032 C.3       1 <0>         0.0716
      8 H2         -0.3326   -2.7320   -3.2335 H         1 <0>         0.0633
      9 C6         -2.1552   -1.8457   -2.4940 C.3       1 <0>         0.0633
     10 N1         -1.5060   -0.7662   -1.7332 N.am      1 <0>        -0.6120
     11 C7         -1.4804    0.4963   -2.2041 C.2       1 <0>         0.5680
     12 O2         -0.8703    1.3579   -1.6008 O.2       1 <0>        -0.5067
     13 C8         -2.1927    0.8330   -3.4516 C.ar      1 <0>        -0.1248
     14 C9         -3.3833    0.1792   -3.7782 C.ar      1 <0>        -0.1410
     15 C10        -4.0461    0.5007   -4.9499 C.ar      1 <0>         0.1756
     16 C11        -3.5293    1.4721   -5.8011 C.ar      1 <0>        -0.1288
     17 C12        -2.3536    2.1218   -5.4844 C.ar      1 <0>        -0.1667
     18 C13        -1.6814    1.8138   -4.3112 C.ar      1 <0>         0.1292
     19 O3         -0.5280    2.4580   -3.9987 O.3       1 <0>        -0.2954
     20 C14        -0.0662    3.4461   -4.9220 C.3       1 <0>         0.0249
     21 N2         -5.2389   -0.1534   -5.2794 N.pl3     1 <0>        -0.8799
     22 C15        -1.8857   -4.2255   -3.2184 C.3       1 <0>        -0.1447
     23 H3          1.1002    0.5908    1.8022 H         1 <0>         0.0596
     24 H4         -0.1546   -0.6380    2.0915 H         1 <0>         0.0534
     25 H5          1.3352   -1.0751    1.2211 H         1 <0>         0.0516
     26 H6         -0.7219    0.9391    0.2125 H         1 <0>         0.0935
     27 H7          0.7005    0.3348   -0.6705 H         1 <0>         0.0737
     28 H8          0.8805   -2.0261   -1.2757 H         1 <0>         0.0565
     29 H9          0.3964   -2.6688    0.3130 H         1 <0>         0.1085
     30 H10        -2.4128   -1.4886   -3.4911 H         1 <0>         0.1114
     31 H11        -3.0575   -2.1688   -1.9748 H         1 <0>         0.0779
     32 H12        -3.7853   -0.5753   -3.1183 H         1 <0>         0.1389
     33 H13        -4.0504    1.7188   -6.7143 H         1 <0>         0.1290
     34 H14        -1.9582    2.8749   -6.1499 H         1 <0>         0.1360
     35 H15        -0.8193    4.2273   -5.0249 H         1 <0>         0.0553
     36 H16         0.8619    3.8825   -4.5530 H         1 <0>         0.1009
     37 H17         0.1110    2.9821   -5.8923 H         1 <0>         0.0538
     38 H18        -5.6001   -0.8311   -4.6869 H         1 <0>         0.3986
     39 H19        -5.7043    0.0711   -6.1003 H         1 <0>         0.3997
     40 H20        -2.7284   -4.5106   -2.5886 H         1 <0>         0.0669
     41 H21        -2.2473   -3.9658   -4.2134 H         1 <0>         0.0742
     42 H22        -1.1883   -5.0600   -3.2917 H         1 <0>         0.0693
@<TRIPOS>BOND
     1    1    2 1
     2    1   23 1
     3    1   24 1
     4    1   25 1
     5    2    3 1
     6    2   26 1
     7    2   27 1
     8    3    4 1
     9    3   10 1
    10    3    5 1
    11    5    6 1
    12    5   28 1
    13    5   29 1
    14    6    7 1
    15    7    8 1
    16    7    9 1
    17    7   22 1
    18    9   10 1
    19    9   30 1
    20    9   31 1
    21   10   11 am
    22   11   12 2
    23   11   13 1
    24   13   18 ar
    25   13   14 ar
    26   14   15 ar
    27   14   32 1
    28   15   16 ar
    29   15   21 1
    30   16   17 ar
    31   16   33 1
    32   17   18 ar
    33   17   34 1
    34   18   19 1
    35   19   20 1
    36   20   35 1
    37   20   36 1
    38   20   37 1
    39   21   38 1
    40   21   39 1
    41   22   40 1
    42   22   41 1
    43   22   42 1
@<TRIPOS>MOLECULE
ZINC49007738
   46    47     0     0     0
SMALL
USER_CHARGES

@<TRIPOS>ATOM
      1 C1         -0.0184    1.5028    0.0103 C.3       1 <0>        -0.0691
      2 C2          0.0021   -0.0041    0.0020 C.2       1 <0>         0.0415
      3 C3          0.0080   -0.8184   -1.1395 C.2       1 <0>         0.0674
      4 C4          0.0274   -2.1115   -0.7283 C.2       1 <0>         0.0065
      5 N1          0.0335   -2.1094    0.6313 N.pl3     1 <0>        -0.3585
      6 N2          0.0230   -0.7755    1.0589 N.2       1 <0>        -0.2661
      7 C5          0.0535   -3.2921    1.4957 C.3       1 <0>         0.1276
      8 C6          1.4810   -3.6783    1.7856 C.2       1 <0>         0.4962
      9 O1          2.3920   -3.0296    1.3164 O.2       1 <0>        -0.5156
     10 N3          1.7453   -4.7447    2.5662 N.am      1 <0>        -0.6115
     11 C7          0.6449   -5.5284    3.1330 C.3       1 <0>         0.0686
     12 C8          3.1330   -5.1202    2.8481 C.3       1 <0>         0.1400
     13 H1          3.8065   -4.4265    2.3448 H         1 <0>         0.1006
     14 C9          3.3796   -5.0661    4.3571 C.3       1 <0>        -0.1271
     15 C10         4.8289   -5.4583    4.6515 C.3       1 <0>        -0.1177
     16 C11         5.0863   -6.8783    4.1432 C.3       1 <0>        -0.1162
     17 C12         4.8397   -6.9324    2.6342 C.3       1 <0>        -0.0903
     18 H2          5.5132   -6.2387    2.1309 H         1 <0>         0.0719
     19 C13         3.3904   -6.5402    2.3398 C.3       1 <0>        -0.1194
     20 C14         5.0971   -8.3523    2.1259 C.3       1 <0>        -0.1471
     21 C15         0.0399   -3.3285   -1.6171 C.3       1 <0>        -0.0777
     22 N4         -0.0046   -0.3734   -2.4753 N.pl3     1 <0>        -0.8729
     23 H3          1.0042    1.8801    0.0026 H         1 <0>         0.0746
     24 H4         -0.5455    1.8639   -0.8728 H         1 <0>         0.0723
     25 H5         -0.5286    1.8543    0.9071 H         1 <0>         0.0737
     26 H6         -0.4592   -3.0673    2.4309 H         1 <0>         0.1222
     27 H7         -0.4515   -4.1174    0.9938 H         1 <0>         0.1190
     28 H8          0.3764   -6.3290    2.4438 H         1 <0>         0.0614
     29 H9          0.9572   -5.9578    4.0849 H         1 <0>         0.0791
     30 H10        -0.2178   -4.8813    3.2919 H         1 <0>         0.0725
     31 H11         3.1962   -4.0545    4.7192 H         1 <0>         0.0656
     32 H12         2.7061   -5.7598    4.8604 H         1 <0>         0.0666
     33 H13         5.5024   -4.7646    4.1482 H         1 <0>         0.0648
     34 H14         5.0045   -5.4198    5.7265 H         1 <0>         0.0676
     35 H15         6.1188   -7.1577    4.3529 H         1 <0>         0.0651
     36 H16         4.4128   -7.5720    4.6465 H         1 <0>         0.0632
     37 H17         2.7169   -7.2339    2.8431 H         1 <0>         0.0664
     38 H18         3.2148   -6.5787    1.2648 H         1 <0>         0.0647
     39 H19         4.4236   -9.0460    2.6292 H         1 <0>         0.0546
     40 H20         4.9215   -8.3909    1.0509 H         1 <0>         0.0546
     41 H21         6.1296   -8.6317    2.3356 H         1 <0>         0.0568
     42 H22         1.0704   -3.6082   -1.8356 H         1 <0>         0.0721
     43 H23        -0.4609   -4.1535   -1.1104 H         1 <0>         0.0638
     44 H24        -0.4809   -3.1040   -2.5479 H         1 <0>         0.0773
     45 H25        -0.0183    0.5768   -2.6698 H         1 <0>         0.3968
     46 H26         0.0006   -1.0170   -3.2009 H         1 <0>         0.3940
@<TRIPOS>BOND
     1    1    2 1
     2    1   23 1
     3    1   24 1
     4    1   25 1
     5    2    6 2
     6    2    3 1
     7    3    4 2
     8    3   22 1
     9    4    5 1
    10    4   21 1
    11    5    6 1
    12    5    7 1
    13    7    8 1
    14    7   26 1
    15    7   27 1
    16    8    9 2
    17    8   10 am
    18   10   11 1
    19   10   12 1
    20   11   28 1
    21   11   29 1
    22   11   30 1
    23   12   13 1
    24   12   19 1
    25   12   14 1
    26   14   15 1
    27   14   31 1
    28   14   32 1
    29   15   16 1
    30   15   33 1
    31   15   34 1
    32   16   17 1
    33   16   35 1
    34   16   36 1
    35   17   18 1
    36   17   19 1
    37   17   20 1
    38   19   37 1
    39   19   38 1
    40   20   39 1
    41   20   40 1
    42   20   41 1
    43   21   42 1
    44   21   43 1
    45   21   44 1
    46   22   45 1
    47   22   46 1
@<TRIPOS>MOLECULE
ZINC57292701
   38    40     0     0     0
SMALL
USER_CHARGES

@<TRIPOS>ATOM
      1 C1         -0.0167    1.3781    0.0096 C.ar      1 <0>        -0.1239
      2 C2          1.1709    2.0855    0.0021 C.ar      1 <0>        -0.1121
      3 C3          2.3773    1.4107   -0.0130 C.ar      1 <0>        -0.1114
      4 C4          2.3960    0.0285   -0.0201 C.ar      1 <0>        -0.0493
      5 C5          1.2084   -0.6789   -0.0117 C.ar      1 <0>        -0.1368
      6 C6          0.0021   -0.0041    0.0020 C.ar      1 <0>        -0.1133
      7 C7          3.7112   -0.7071   -0.0376 C.3       1 <0>        -0.1282
      8 H1          4.5589   -0.1646    0.3809 H         1 <0>         0.1242
      9 C8          3.6750   -2.2237    0.1616 C.3       1 <0>        -0.1852
     10 C9          3.9832   -1.6399   -1.2194 C.3       1 <0>         0.1153
     11 H2          5.0100   -1.7113   -1.5782 H         1 <0>         0.1461
     12 N1          2.9453   -1.7495   -2.2475 N.am      1 <0>        -0.7138
     13 C10         3.2758   -2.1121   -3.5028 C.2       1 <0>         0.7093
     14 O1          4.4354   -2.3481   -3.7820 O.2       1 <0>        -0.5816
     15 N2          2.3210   -2.2129   -4.4486 N.am      1 <0>        -0.7326
     16 C11         2.6803   -2.6070   -5.8131 C.3       1 <0>         0.1617
     17 H3          3.5044   -3.3198   -5.7854 H         1 <0>         0.1163
     18 C12         3.0944   -1.3654   -6.6203 C.3       1 <0>        -0.1420
     19 C13         3.1641   -1.7144   -8.1265 C.3       1 <0>        -0.5731
     20 S1          1.9421   -3.0800   -8.2818 S.o2      1 <0>         2.3795
     21 O2          2.6180   -4.2609   -8.6913 O.2       1 <0>        -0.9278
     22 O3          0.8255   -2.6184   -9.0297 O.2       1 <0>        -0.9315
     23 C14         1.4510   -3.2522   -6.5145 C.3       1 <0>        -0.5969
     24 H4         -0.9591    1.9053    0.0259 H         1 <0>         0.1231
     25 H5          1.1563    3.1654    0.0076 H         1 <0>         0.1242
     26 H6          3.3051    1.9634   -0.0196 H         1 <0>         0.1236
     27 H7          1.2231   -1.7588   -0.0176 H         1 <0>         0.1225
     28 H8         -0.9258   -0.5567    0.0082 H         1 <0>         0.1237
     29 H9          4.4992   -2.6789    0.7109 H         1 <0>         0.1109
     30 H10         2.7000   -2.6893    0.3053 H         1 <0>         0.1018
     31 H11         2.0202   -1.5612   -2.0248 H         1 <0>         0.3994
     32 H12         1.3959   -2.0246   -4.2259 H         1 <0>         0.4020
     33 H13         2.3623   -0.5728   -6.4660 H         1 <0>         0.0893
     34 H14         4.0727   -1.0238   -6.2823 H         1 <0>         0.1037
     35 H15         2.8683   -0.8599   -8.7353 H         1 <0>         0.1451
     36 H16         4.1627   -2.0566   -8.3982 H         1 <0>         0.1437
     37 H17         1.3435   -4.3005   -6.2359 H         1 <0>         0.1490
     38 H18         0.5387   -2.6947   -6.3026 H         1 <0>         0.1451
@<TRIPOS>BOND
     1    1    6 ar
     2    1    2 ar
     3    1   24 1
     4    2    3 ar
     5    2   25 1
     6    3    4 ar
     7    3   26 1
     8    4    5 ar
     9    4    7 1
    10    5    6 ar
    11    5   27 1
    12    6   28 1
    13    7    8 1
    14    7   10 1
    15    7    9 1
    16    9   10 1
    17    9   29 1
    18    9   30 1
    19   10   11 1
    20   10   12 1
    21   12   13 am
    22   12   31 1
    23   13   14 2
    24   13   15 am
    25   15   16 1
    26   15   32 1
    27   16   17 1
    28   16   23 1
    29   16   18 1
    30   18   19 1
    31   18   33 1
    32   18   34 1
    33   19   20 1
    34   19   35 1
    35   19   36 1
    36   20   21 2
    37   20   22 2
    38   20   23 1
    39   23   37 1
    40   23   38 1
@<TRIPOS>MOLECULE
ZINC61843598
   21    22     0     0     0
SMALL
USER_CHARGES

@<TRIPOS>ATOM
      1 C1         -0.0167    1.3773    0.0096 C.ar      1 <0>        -0.1610
      2 C2          1.1841    2.0728    0.0019 C.ar      1 <0>        -0.0276
      3 C3          2.3657    1.3502   -0.0133 C.ar      1 <0>        -0.1390
      4 C4          2.3085   -0.0389   -0.0202 C.ar      1 <0>         0.3783
      5 N1          1.1432   -0.6651   -0.0129 N.ar      1 <0>        -0.4852
      6 C5          0.0021   -0.0041    0.0020 C.ar      1 <0>         0.1444
      7 N2          3.4936   -0.7810   -0.0355 N.pl3     1 <0>        -0.3312
      8 C6          3.6613   -2.0458    0.4086 C.2       1 <0>         0.3032
      9 N3          4.9077   -2.3835    0.2222 N.2       1 <0>        -0.5188
     10 C7          5.5764   -1.3642   -0.3398 C.2       1 <0>         0.2037
     11 N4          4.7425   -0.3603   -0.5211 N.2       1 <0>        -0.1809
     12 C8          7.0079   -1.3692   -0.7005 C.2       1 <0>         0.4286
     13 S1          7.7160    0.0171   -1.4131 S.2       1 <0>        -0.4777
     14 N5          7.7574   -2.4651   -0.4688 N.pl3     1 <0>        -0.7401
     15 Br1         4.0339    2.2408   -0.0250 Br        1 <0>         0.0249
     16 H1         -0.9559    1.9102    0.0259 H         1 <0>         0.1581
     17 H2          1.1971    3.1527    0.0072 H         1 <0>         0.1592
     18 H3         -0.9299   -0.5497    0.0080 H         1 <0>         0.1809
     19 H4          2.8950   -2.6702    0.8438 H         1 <0>         0.2363
     20 H5          7.3562   -3.2506   -0.0650 H         1 <0>         0.4138
     21 H6          8.6980   -2.4685   -0.7057 H         1 <0>         0.4301
@<TRIPOS>BOND
     1    1    6 ar
     2    1    2 ar
     3    1   16 1
     4    2    3 ar
     5    2   17 1
     6    3    4 ar
     7    3   15 1
     8    4    5 ar
     9    4    7 1
    10    5    6 ar
    11    6   18 1
    12    7   11 1
    13    7    8 1
    14    8    9 2
    15    8   19 1
    16    9   10 1
    17   10   11 2
    18   10   12 1
    19   12   13 2
    20   12   14 1
    21   14   20 1
    22   14   21 1
@<TRIPOS>MOLECULE
ZINC33492187
   30    30     0     0     0
SMALL
USER_CHARGES
(2S)-2-amino-4-(5-chloro-2-methyl-anilino)-4-oxo-butanoic acid
@<TRIPOS>ATOM
      1 C1         -4.9740    3.9477    4.9271 C.3       1 <0>        -0.1202
      2 C2         -5.2790    4.7452    3.6854 C.ar      1 <0>        -0.1081
      3 C3         -6.3615    5.6031    3.6635 C.ar      1 <0>        -0.0863
      4 C4         -6.6458    6.3310    2.5230 C.ar      1 <0>        -0.1211
      5 C5         -5.8436    6.2072    1.4018 C.ar      1 <0>        -0.0203
      6 C6         -4.7562    5.3544    1.4197 C.ar      1 <0>        -0.1216
      7 C7         -4.4691    4.6220    2.5641 C.ar      1 <0>         0.1537
      8 N1         -3.3693    3.7573    2.5854 N.am      1 <0>        -0.6683
      9 C8         -2.8947    3.2421    1.4340 C.2       1 <0>         0.5150
     10 O1         -3.4798    3.4467    0.3915 O.2       1 <0>        -0.5395
     11 C9         -1.6370    2.4119    1.4418 C.3       1 <0>        -0.1504
     12 C10        -1.3199    1.9531    0.0171 C.3       1 <0>         0.0093
     13 H1         -1.2796    2.8091   -0.6725 H         1 <0>         0.1406
     14 C11         0.0009    1.2277    0.0053 C.2       1 <0>         0.4544
     15 O2          0.0268    0.0197   -0.0002 O.co2     1 <0>        -0.6134
     16 O3          1.1487    1.9235   -0.0048 O.co2     1 <0>        -0.7016
     17 N2         -2.3787    1.0501   -0.4536 N.4       1 <0>        -0.6665
     18 Cl1        -6.2040    7.1235   -0.0280 Cl        1 <0>        -0.0609
     19 H2         -5.7197    4.1771    5.7026 H         1 <0>         0.0771
     20 H3         -3.9707    4.2100    5.2941 H         1 <0>         0.0726
     21 H4         -5.0090    2.8739    4.6910 H         1 <0>         0.0720
     22 H5         -6.9892    5.7018    4.5367 H         1 <0>         0.1385
     23 H6         -7.4953    6.9977    2.5071 H         1 <0>         0.1366
     24 H7         -4.1308    5.2573    0.5446 H         1 <0>         0.1566
     25 H8         -2.8920    3.4980    3.5419 H         1 <0>         0.4453
     26 H9         -0.8018    3.0152    1.8272 H         1 <0>         0.1454
     27 H10        -1.7821    1.5325    2.0865 H         1 <0>         0.1190
     28 H11        -2.1507    0.7202   -1.4779 H         1 <0>         0.4535
     29 H12        -3.3428    1.5796   -0.4449 H         1 <0>         0.4427
     30 H13        -2.4353    0.1743    0.2096 H         1 <0>         0.4459
@<TRIPOS>BOND
     1    1    2 1
     2    1   19 1
     3    1   20 1
     4    1   21 1
     5    2    7 ar
     6    2    3 ar
     7    3    4 ar
     8    3   22 1
     9    4    5 ar
    10    4   23 1
    11    5    6 ar
    12    5   18 1
    13    6    7 ar
    14    6   24 1
    15    7    8 1
    16    8    9 am
    17    8   25 1
    18    9   10 2
    19    9   11 1
    20   11   12 1
    21   11   26 1
    22   11   27 1
    23   12   13 1
    24   12   14 1
    25   12   17 1
    26   14   15 2
    27   14   16 1
    28   17   28 1
    29   17   29 1
    30   17   30 1
@<TRIPOS>MOLECULE
ZINC40320936
   39    40     0     0     0
SMALL
USER_CHARGES

@<TRIPOS>ATOM
      1 C1         -5.1893   -1.5258   -2.0242 C.3       1 <0>        -0.1654
      2 C2         -4.5952   -0.4691   -1.0907 C.3       1 <0>         0.1052
      3 N1         -3.3994   -1.0096   -0.4395 N.pl3     1 <0>        -0.3977
      4 C3         -3.3648   -1.6160    0.7772 C.2       1 <0>        -0.0632
      5 C4         -2.0847   -1.9834    1.0462 C.2       1 <0>         0.1216
      6 C5         -1.2903   -1.5930   -0.0407 C.2       1 <0>        -0.1997
      7 C6         -2.1259   -0.9931   -0.9600 C.2       1 <0>        -0.0172
      8 C7         -1.7281   -0.4359   -2.2568 C.2       1 <0>         0.5814
      9 O1         -2.5194   -0.4209   -3.1813 O.2       1 <0>        -0.5044
     10 N2         -0.4860    0.0597   -2.4248 N.am      1 <0>        -0.5925
     11 C8          0.4162    0.2236   -1.2769 C.3       1 <0>         0.0929
     12 C9          0.9195    1.6702   -1.2478 C.3       1 <0>        -0.1378
     13 C10         1.5521    2.0132   -2.5985 C.3       1 <0>        -0.1194
     14 C11         0.4996    1.8900   -3.7027 C.3       1 <0>        -0.1220
     15 C12        -0.0064    0.4407   -3.7603 C.3       1 <0>         0.1305
     16 H1          0.8062   -0.2214   -4.0593 H         1 <0>         0.0891
     17 C13        -1.1368    0.3372   -4.7516 C.2       1 <0>         0.5366
     18 O2         -2.0668    1.1136   -4.6939 O.2       1 <0>        -0.5205
     19 N3         -1.1142   -0.6179   -5.7022 N.am      1 <0>        -0.8557
     20 N4         -1.6364   -2.6383    2.2084 N.pl3     1 <0>        -0.8790
     21 H2         -6.1262   -1.1568   -2.4412 H         1 <0>         0.0721
     22 H3         -4.4879   -1.7320   -2.8327 H         1 <0>         0.0751
     23 H4         -5.3768   -2.4416   -1.4636 H         1 <0>         0.0569
     24 H5         -4.3262    0.4155   -1.6679 H         1 <0>         0.0934
     25 H6         -5.3307   -0.1988   -0.3331 H         1 <0>         0.0886
     26 H7         -4.2148   -1.7783    1.4235 H         1 <0>         0.1631
     27 H8         -0.2248   -1.7383   -0.1414 H         1 <0>         0.1460
     28 H9         -0.1224    0.0055   -0.3547 H         1 <0>         0.1118
     29 H10         1.2626   -0.4558   -1.3775 H         1 <0>         0.0722
     30 H11         0.0831    2.3426   -1.0566 H         1 <0>         0.0691
     31 H12         1.6635    1.7808   -0.4590 H         1 <0>         0.0800
     32 H13         1.9331    3.0341   -2.5722 H         1 <0>         0.0723
     33 H14         2.3726    1.3247   -2.8005 H         1 <0>         0.0671
     34 H15        -0.3328    2.5603   -3.4883 H         1 <0>         0.0818
     35 H16         0.9449    2.1571   -4.6611 H         1 <0>         0.0784
     36 H17        -0.3704   -1.2388   -5.7483 H         1 <0>         0.3953
     37 H18        -1.8418   -0.6845   -6.3402 H         1 <0>         0.4025
     38 H19        -2.2664   -2.8681    2.9093 H         1 <0>         0.3949
     39 H20        -0.6974   -2.8600    2.3086 H         1 <0>         0.3967
@<TRIPOS>BOND
     1    1    2 1
     2    1   21 1
     3    1   22 1
     4    1   23 1
     5    2    3 1
     6    2   24 1
     7    2   25 1
     8    3    7 1
     9    3    4 1
    10    4    5 2
    11    4   26 1
    12    5    6 1
    13    5   20 1
    14    6    7 2
    15    6   27 1
    16    7    8 1
    17    8    9 2
    18    8   10 am
    19   10   15 1
    20   10   11 1
    21   11   12 1
    22   11   28 1
    23   11   29 1
    24   12   13 1
    25   12   30 1
    26   12   31 1
    27   13   14 1
    28   13   32 1
    29   13   33 1
    30   14   15 1
    31   14   34 1
    32   14   35 1
    33   15   16 1
    34   15   17 1
    35   17   18 2
    36   17   19 am
    37   19   36 1
    38   19   37 1
    39   20   38 1
    40   20   39 1
@<TRIPOS>MOLECULE
ZINC41834283
   37    38     0     0     0
SMALL
USER_CHARGES

@<TRIPOS>ATOM
      1 C1          3.2413    0.5369   -2.4739 C.3       1 <0>        -0.2159
      2 C2          1.8750    0.2104   -3.0802 C.3       1 <0>         0.0535
      3 C3          1.0772    1.5028   -3.2654 C.3       1 <0>        -0.1909
      4 C4          2.0655   -0.4582   -4.4172 C.2       1 <0>         0.5123
      5 O1          2.0364    0.2012   -5.4347 O.2       1 <0>        -0.4851
      6 N1          2.2683   -1.7891   -4.4824 N.am      1 <0>        -0.8555
      7 N2          1.1434   -0.6921   -2.1812 N.4       1 <0>        -0.4760
      8 C5          1.3918   -0.3017   -0.7870 C.3       1 <0>         0.0191
      9 C6          2.7042   -0.9356   -0.2790 C.3       1 <0>        -0.1292
     10 C7          2.2106   -2.2487    0.3646 C.3       1 <0>        -0.0987
     11 C8          0.7799   -1.9747    0.7763 C.ar      1 <0>        -0.0777
     12 C9          0.3093   -0.8558    0.1144 C.ar      1 <0>        -0.1285
     13 C10        -0.9844   -0.4163    0.3379 C.ar      1 <0>        -0.0657
     14 C11        -1.8058   -1.0922    1.2194 C.ar      1 <0>        -0.1243
     15 C12        -1.3353   -2.2106    1.8811 C.ar      1 <0>        -0.0926
     16 C13        -0.0448   -2.6508    1.6593 C.ar      1 <0>        -0.1140
     17 C14         1.4535    1.1994   -0.6683 C.2       1 <0>         0.5070
     18 O2          0.4771    1.8737   -0.9484 O.co2     1 <0>        -0.6321
     19 O3          2.4798    1.7395   -0.2921 O.co2     1 <0>        -0.6267
     20 H1          3.1909    0.4371   -1.3897 H         1 <0>         0.1599
     21 H2          3.9878   -0.1527   -2.8680 H         1 <0>         0.0659
     22 H3          3.5185    1.5589   -2.7322 H         1 <0>         0.1041
     23 H4          1.3756    1.9836   -4.1969 H         1 <0>         0.0913
     24 H5          0.0128    1.2707   -3.3010 H         1 <0>         0.0721
     25 H6          1.2749    2.1746   -2.4301 H         1 <0>         0.1545
     26 H7          2.2916   -2.3165   -3.6686 H         1 <0>         0.3934
     27 H8          2.3910   -2.2194   -5.3429 H         1 <0>         0.4194
     28 H9          0.1552   -0.6327   -2.3762 H         1 <0>         0.4256
     29 H10         3.3814   -1.1411   -1.1080 H         1 <0>         0.0964
     30 H11         3.1816   -0.2958    0.4632 H         1 <0>         0.1311
     31 H12         2.2464   -3.0620   -0.3602 H         1 <0>         0.0829
     32 H13         2.8154   -2.4925    1.2380 H         1 <0>         0.0956
     33 H14        -1.3527    0.4576   -0.1788 H         1 <0>         0.1424
     34 H15        -2.8144   -0.7467    1.3915 H         1 <0>         0.1324
     35 H16        -1.9761   -2.7402    2.5706 H         1 <0>         0.1308
     36 H17         0.3222   -3.5249    2.1768 H         1 <0>         0.1271
     37 H18         1.4585   -1.6396   -2.3264 H         1 <0>         0.3958
@<TRIPOS>BOND
     1    1    2 1
     2    1   20 1
     3    1   21 1
     4    1   22 1
     5    2    3 1
     6    2    4 1
     7    2    7 1
     8    3   23 1
     9    3   24 1
    10    3   25 1
    11    4    5 2
    12    4    6 am
    13    6   26 1
    14    6   27 1
    15    7    8 1
    16    7   28 1
    17    7   37 1
    18    8   12 1
    19    8    9 1
    20    8   17 1
    21    9   10 1
    22    9   29 1
    23    9   30 1
    24   10   11 1
    25   10   31 1
    26   10   32 1
    27   11   16 ar
    28   11   12 ar
    29   12   13 ar
    30   13   14 ar
    31   13   33 1
    32   14   15 ar
    33   14   34 1
    34   15   16 ar
    35   15   35 1
    36   16   36 1
    37   17   18 2
    38   17   19 1
@<TRIPOS>MOLECULE
ZINC48913859
   36    37     0     0     0
SMALL
USER_CHARGES

@<TRIPOS>ATOM
      1 C1         -5.2362   -2.2716   -0.3501 C.3       1 <0>        -0.0809
      2 C2         -5.0030   -1.1030    0.5724 C.2       1 <0>         0.0008
      3 C3         -3.8648   -0.3928    0.6701 C.2       1 <0>        -0.2014
      4 C4         -4.0856    0.6020    1.6502 C.2       1 <0>        -0.1981
      5 C5         -5.3455    0.4403    2.0927 C.2       1 <0>        -0.0439
      6 O1         -5.8983   -0.5902    1.4322 O.3       1 <0>        -0.1769
      7 C6         -2.5972   -0.6154   -0.1140 C.3       1 <0>         0.1979
      8 N1         -2.7360   -0.0207   -1.4456 N.pl3     1 <0>        -0.6307
      9 C7         -3.3406   -0.7934   -2.5335 C.3       1 <0>         0.0932
     10 C8         -2.2906    1.2862   -1.6786 C.ar      1 <0>         0.1519
     11 C9         -1.8114    2.0545   -0.6219 C.ar      1 <0>        -0.1027
     12 C10        -1.3700    3.3427   -0.8408 C.ar      1 <0>        -0.1670
     13 C11        -1.4014    3.8830   -2.1202 C.ar      1 <0>         0.2383
     14 C12        -1.8832    3.1141   -3.1899 C.ar      1 <0>        -0.1943
     15 C13        -2.3230    1.8078   -2.9595 C.ar      1 <0>        -0.1158
     16 C14        -1.9202    3.6793   -4.5512 C.2       1 <0>         0.5766
     17 O2         -1.4481    4.7792   -4.7659 O.2       1 <0>        -0.5544
     18 N2         -2.4771    2.9769   -5.5576 N.am      1 <0>        -0.8504
     19 N3         -0.9567    5.1831   -2.3398 N.pl3     1 <0>        -0.8640
     20 H1         -6.2168   -2.7031   -0.1492 H         1 <0>         0.0756
     21 H2         -5.1939   -1.9317   -1.3849 H         1 <0>         0.0863
     22 H3         -4.4665   -3.0252   -0.1835 H         1 <0>         0.0854
     23 H4         -3.3782    1.3483    1.9804 H         1 <0>         0.1461
     24 H5         -5.8314    1.0399    2.8481 H         1 <0>         0.2013
     25 H6         -1.7611   -0.1489    0.4070 H         1 <0>         0.0838
     26 H7         -2.4133   -1.6854   -0.2112 H         1 <0>         0.0796
     27 H8         -4.4172   -0.6233   -2.5453 H         1 <0>         0.0451
     28 H9         -2.9125   -0.4778   -3.4849 H         1 <0>         0.0650
     29 H10        -3.1420   -1.8541   -2.3798 H         1 <0>         0.0664
     30 H11        -1.7853    1.6399    0.3751 H         1 <0>         0.1261
     31 H12        -0.9995    3.9329   -0.0157 H         1 <0>         0.1273
     32 H13        -2.6915    1.2083   -3.7789 H         1 <0>         0.1236
     33 H14        -2.8537    2.0995   -5.3863 H         1 <0>         0.4007
     34 H15        -2.5015    3.3487   -6.4531 H         1 <0>         0.4041
     35 H16        -0.5211    5.6739   -1.6254 H         1 <0>         0.3914
     36 H17        -1.0823    5.5986   -3.2072 H         1 <0>         0.4141
@<TRIPOS>BOND
     1    1    2 1
     2    1   20 1
     3    1   21 1
     4    1   22 1
     5    2    6 1
     6    2    3 2
     7    3    4 1
     8    3    7 1
     9    4    5 2
    10    4   23 1
    11    5    6 1
    12    5   24 1
    13    7    8 1
    14    7   25 1
    15    7   26 1
    16    8    9 1
    17    8   10 1
    18    9   27 1
    19    9   28 1
    20    9   29 1
    21   10   15 ar
    22   10   11 ar
    23   11   12 ar
    24   11   30 1
    25   12   13 ar
    26   12   31 1
    27   13   14 ar
    28   13   19 1
    29   14   15 ar
    30   14   16 1
    31   15   32 1
    32   16   17 2
    33   16   18 am
    34   18   33 1
    35   18   34 1
    36   19   35 1
    37   19   36 1
@<TRIPOS>MOLECULE
ZINC06062588
   27    28     0     0     0
SMALL
USER_CHARGES

@<TRIPOS>ATOM
      1 C1         -0.0166    1.3763    0.0096 C.ar      1 <0>        -0.1404
      2 C2          1.1722    2.0864    0.0021 C.ar      1 <0>        -0.0574
      3 C3          2.3847    1.4273   -0.0130 C.ar      1 <0>        -0.1344
      4 C4          2.4235    0.0372   -0.0212 C.ar      1 <0>         0.1704
      5 C5          1.2186   -0.6771   -0.0136 C.ar      1 <0>        -0.1084
      6 C6          0.0021   -0.0041    0.0020 C.ar      1 <0>        -0.0287
      7 C7          1.5836   -2.1129   -0.0253 C.2       1 <0>         0.1142
      8 N1          0.7721   -3.1434   -0.0238 N.2       1 <0>        -0.1819
      9 N2          1.2919   -4.4444   -0.0361 N.pl3     1 <0>        -0.5289
     10 C8          0.4581   -5.5033   -0.0347 C.2       1 <0>         0.5938
     11 S1          1.0932   -7.0930   -0.0497 S.2       1 <0>        -0.5833
     12 N3         -0.8758   -5.3106   -0.0214 N.pl3     1 <0>        -0.7817
     13 C9          3.0591   -2.1310   -0.0397 C.2       1 <0>         0.5433
     14 O1          3.7632   -3.1237   -0.0522 O.2       1 <0>        -0.4741
     15 N4          3.4878   -0.8573   -0.0367 N.am      1 <0>        -0.5338
     16 C10         4.8983   -0.4614   -0.0486 C.3       1 <0>         0.3023
     17 O2          5.4640   -0.6754    1.2461 O.3       1 <0>        -0.5805
     18 H1         -0.9594    1.9029    0.0259 H         1 <0>         0.1399
     19 H2          1.1503    3.1662    0.0077 H         1 <0>         0.1408
     20 H3          3.3052    1.9922   -0.0188 H         1 <0>         0.1355
     21 H4         -0.9245   -0.5589    0.0082 H         1 <0>         0.1394
     22 H5          2.2519   -4.5830   -0.0457 H         1 <0>         0.4377
     23 H6         -1.2357   -4.4099   -0.0129 H         1 <0>         0.4085
     24 H7         -1.4759   -6.0727   -0.0203 H         1 <0>         0.4352
     25 H8          5.4371   -1.0589   -0.7839 H         1 <0>         0.0827
     26 H9          4.9772    0.5939   -0.3097 H         1 <0>         0.0867
     27 H10         6.3982   -0.4343    1.3118 H         1 <0>         0.4032
@<TRIPOS>BOND
     1    1    6 ar
     2    1    2 ar
     3    1   18 1
     4    2    3 ar
     5    2   19 1
     6    3    4 ar
     7    3   20 1
     8    4   15 1
     9    4    5 ar
    10    5    6 ar
    11    5    7 1
    12    6   21 1
    13    7    8 2
    14    7   13 1
    15    8    9 1
    16    9   10 1
    17    9   22 1
    18   10   11 2
    19   10   12 1
    20   12   23 1
    21   12   24 1
    22   13   14 2
    23   13   15 am
    24   15   16 1
    25   16   17 1
    26   16   25 1
    27   16   26 1
    28   17   27 1
@<TRIPOS>MOLECULE
ZINC09210355
   48    53     0     0     0
SMALL
USER_CHARGES
(2,4-dichlorophenyl)BLAHtrione
@<TRIPOS>ATOM
      1 C1          1.5973    6.2666   -4.1933 C.ar      1 <0>        -0.1207
      2 C2          2.4259    6.8333   -5.1446 C.ar      1 <0>        -0.0408
      3 C3          3.7091    7.2149   -4.8125 C.ar      1 <0>        -0.1235
      4 C4          4.1806    7.0326   -3.5144 C.ar      1 <0>         0.1703
      5 C5          3.3379    6.4615   -2.5659 C.ar      1 <0>        -0.2055
      6 C6          2.0577    6.0816   -2.9017 C.ar      1 <0>        -0.0271
      7 C7          4.1323    6.4035   -1.2909 C.3       1 <0>         0.0937
      8 C8          4.2702    4.9632   -0.7846 C.3       1 <0>        -0.1188
      9 H1          5.1781    4.4789   -1.1440 H         1 <0>         0.1802
     10 C9          4.2173    5.0674    0.7642 C.3       1 <0>        -0.1283
     11 H2          5.0988    4.6431    1.2449 H         1 <0>         0.1873
     12 C10         4.0422    6.5865    1.0453 C.3       1 <0>         0.0395
     13 H3          4.9782    7.0675    1.3293 H         1 <0>         0.1862
     14 C11         2.0335    6.8195   -0.1638 C.3       1 <0>        -0.0322
     15 C12         1.6338    6.9596    1.3188 C.3       1 <0>        -0.1479
     16 C13         2.9466    6.7880    2.1078 C.3       1 <0>        -0.1683
     17 C14         2.9383    4.3428    1.1188 C.2       1 <0>         0.5263
     18 O1          2.5057    4.1941    2.2415 O.2       1 <0>        -0.4148
     19 N1          2.3600    3.8888    0.0009 N.am      1 <0>        -0.5264
     20 C15         3.0212    4.1815   -1.1249 C.2       1 <0>         0.5170
     21 O2          2.6733    3.8688   -2.2433 O.2       1 <0>        -0.4008
     22 C16         1.1556    3.1697    0.0080 C.ar      1 <0>         0.1000
     23 C17        -0.0550    3.8400   -0.1009 C.ar      1 <0>        -0.0801
     24 C18        -1.2396    3.1300   -0.0941 C.ar      1 <0>        -0.0902
     25 C19        -1.2213    1.7514    0.0270 C.ar      1 <0>        -0.0017
     26 C20        -0.0161    1.0796    0.1301 C.ar      1 <0>        -0.0882
     27 C21         1.1724    1.7856    0.1238 C.ar      1 <0>        -0.0021
     28 Cl1         2.6842    0.9432    0.2597 Cl        1 <0>        -0.0312
     29 Cl2        -2.7126    0.8630    0.0424 Cl        1 <0>        -0.0246
     30 C22         5.4720    6.9930   -1.6398 C.2       1 <0>         0.5378
     31 O3          6.4165    7.1364   -0.8925 O.2       1 <0>        -0.4408
     32 N2          5.4189    7.3317   -2.9423 N.am      1 <0>        -0.6375
     33 H4          0.5932    5.9696   -4.4578 H         1 <0>         0.1468
     34 H5          2.0666    6.9773   -6.1529 H         1 <0>         0.1504
     35 H6          4.3501    7.6567   -5.5610 H         1 <0>         0.1459
     36 H7          1.4127    5.6395   -2.1567 H         1 <0>         0.1254
     37 H8          1.4597    7.5141   -0.7773 H         1 <0>         0.1578
     38 H9          1.8759    5.7956   -0.5027 H         1 <0>         0.1169
     39 H10         0.9225    6.1809    1.5940 H         1 <0>         0.1142
     40 H11         1.2072    7.9454    1.5041 H         1 <0>         0.1166
     41 H12         2.8852    5.9142    2.7564 H         1 <0>         0.1458
     42 H13         3.1522    7.6819    2.6966 H         1 <0>         0.1181
     43 H14        -0.0706    4.9162   -0.1906 H         1 <0>         0.1408
     44 H15        -2.1815    3.6515   -0.1789 H         1 <0>         0.1580
     45 H16        -0.0041    0.0034    0.2196 H         1 <0>         0.1613
     46 H17         6.1553    7.7367   -3.4267 H         1 <0>         0.4390
     47 N3          3.4828    7.1073   -0.1810 N.4       1 <0>        -0.3661
     48 H18         3.6438    8.1185   -0.2575 H         1 <0>         0.4421
@<TRIPOS>BOND
     1    1    6 ar
     2    1    2 ar
     3    1   33 1
     4    2    3 ar
     5    2   34 1
     6    3    4 ar
     7    3   35 1
     8    4   32 1
     9    4    5 ar
    10    5    6 ar
    11    5    7 1
    12    6   36 1
    13    7    8 1
    14    7   30 1
    15    7   47 1
    16    8    9 1
    17    8   20 1
    18    8   10 1
    19   10   11 1
    20   10   12 1
    21   10   17 1
    22   12   13 1
    23   12   16 1
    24   12   47 1
    25   14   15 1
    26   14   37 1
    27   14   38 1
    28   14   47 1
    29   15   16 1
    30   15   39 1
    31   15   40 1
    32   16   41 1
    33   16   42 1
    34   17   18 2
    35   17   19 am
    36   19   20 am
    37   19   22 1
    38   20   21 2
    39   22   27 ar
    40   22   23 ar
    41   23   24 ar
    42   23   43 1
    43   24   25 ar
    44   24   44 1
    45   25   26 ar
    46   25   29 1
    47   26   27 ar
    48   26   45 1
    49   27   28 1
    50   30   31 2
    51   30   32 am
    52   32   46 1
    53   47   48 1
@<TRIPOS>MOLECULE
ZINC00921702
   57    61     0     0     0
SMALL
USER_CHARGES
N-[(1R,2S)-2-(4-acetylpiperazin-1-yl)acenaphthen-1-yl]benzenesulfonamide
@<TRIPOS>ATOM
      1 C1          4.9208    6.8506    2.6518 C.3       1 <0>        -0.1797
      2 C2          3.7254    6.1053    3.1871 C.2       1 <0>         0.5217
      3 O1          3.8448    5.3813    4.1528 O.2       1 <0>        -0.5134
      4 N1          2.5237    6.2432    2.5928 N.am      1 <0>        -0.6345
      5 C3          1.3442    5.5250    3.0990 C.3       1 <0>         0.0830
      6 C4          0.6817    4.7910    1.9283 C.3       1 <0>        -0.0230
      7 C5          1.6544    6.3197    0.3164 C.3       1 <0>        -0.0223
      8 C6          2.3568    7.1164    1.4210 C.3       1 <0>         0.0809
      9 C7         -0.3785    5.1202   -0.2235 C.3       1 <0>         0.0786
     10 H1         -0.3490    5.7335   -1.1241 H         1 <0>         0.1656
     11 C8          0.1448    3.7352   -0.5165 C.ar      1 <0>        -0.1527
     12 C9          1.3340    3.2338   -0.9506 C.ar      1 <0>        -0.0490
     13 C10         1.4981    1.8580   -1.1252 C.ar      1 <0>        -0.1260
     14 C11         0.4959    0.9656   -0.8742 C.ar      1 <0>        -0.0550
     15 C12        -0.7457    1.4491   -0.4305 C.ar      1 <0>        -0.0511
     16 C13        -0.8856    2.8378   -0.2570 C.ar      1 <0>        -0.0460
     17 C14        -2.0682    3.4250    0.1819 C.ar      1 <0>        -0.1310
     18 C15        -3.1227    2.6091    0.4559 C.ar      1 <0>        -0.0396
     19 C16        -3.0051    1.2261    0.2970 C.ar      1 <0>        -0.1167
     20 C17        -1.8517    0.6361   -0.1323 C.ar      1 <0>        -0.0696
     21 C18        -1.8382    4.9156    0.2372 C.3       1 <0>         0.1951
     22 H2         -2.5229    5.4288   -0.4381 H         1 <0>         0.1401
     23 N2         -2.0140    5.4060    1.6065 N.pl3     1 <0>        -1.1323
     24 S1         -2.6705    6.9030    1.8719 S.o2      1 <0>         2.6681
     25 O2         -2.8163    7.0388    3.2789 O.2       1 <0>        -0.9264
     26 O3         -1.9169    7.8211    1.0920 O.2       1 <0>        -0.9556
     27 C19        -4.2978    6.8854    1.1965 C.ar      1 <0>        -0.6809
     28 C20        -4.5210    7.3632   -0.0813 C.ar      1 <0>        -0.0280
     29 C21        -5.7970    7.3458   -0.6127 C.ar      1 <0>        -0.1334
     30 C22        -6.8512    6.8581    0.1368 C.ar      1 <0>        -0.0484
     31 C23        -6.6289    6.3851    1.4165 C.ar      1 <0>        -0.1326
     32 C24        -5.3523    6.3990    1.9465 C.ar      1 <0>        -0.0155
     33 H3          4.7285    7.9228    2.6923 H         1 <0>         0.0971
     34 H4          5.7964    6.6154    3.2568 H         1 <0>         0.1043
     35 H5          5.1020    6.5528    1.6190 H         1 <0>         0.0940
     36 H6          0.6400    6.2361    3.5310 H         1 <0>         0.0921
     37 H7          1.6518    4.8040    3.8564 H         1 <0>         0.1412
     38 H8         -0.2546    4.3439    2.2624 H         1 <0>         0.1351
     39 H9          1.3489    4.0096    1.5646 H         1 <0>         0.1439
     40 H10         2.3081    5.5170   -0.0250 H         1 <0>         0.1374
     41 H11         1.4236    6.9812   -0.5186 H         1 <0>         0.1490
     42 H12         1.7499    7.9804    1.6917 H         1 <0>         0.1021
     43 H13         3.3338    7.4474    1.0689 H         1 <0>         0.1377
     44 H14         2.1545    3.9037   -1.1614 H         1 <0>         0.1310
     45 H15         2.4514    1.4869   -1.4713 H         1 <0>         0.1391
     46 H16         0.6538   -0.0930   -1.0185 H         1 <0>         0.1443
     47 H17        -4.0551    3.0331    0.7982 H         1 <0>         0.1343
     48 H18        -3.8571    0.6017    0.5222 H         1 <0>         0.1380
     49 H19        -1.7920   -0.4363   -0.2453 H         1 <0>         0.1431
     50 H20        -1.7458    4.8539    2.3575 H         1 <0>         0.4280
     51 H21        -3.6979    7.7474   -0.6656 H         1 <0>         0.1423
     52 H22        -5.9707    7.7157   -1.6124 H         1 <0>         0.1401
     53 H23        -7.8486    6.8470   -0.2774 H         1 <0>         0.1394
     54 H24        -7.4526    6.0045    2.0022 H         1 <0>         0.1408
     55 H25        -5.1786    6.0294    2.9463 H         1 <0>         0.1419
     56 N3          0.3926    5.7691    0.8571 N.4       1 <0>        -0.3846
     57 H26        -0.1646    6.5372    1.2493 H         1 <0>         0.4179
@<TRIPOS>BOND
     1    1    2 1
     2    1   33 1
     3    1   34 1
     4    1   35 1
     5    2    3 2
     6    2    4 am
     7    4    8 1
     8    4    5 1
     9    5    6 1
    10    5   36 1
    11    5   37 1
    12    6   38 1
    13    6   39 1
    14    6   56 1
    15    7    8 1
    16    7   40 1
    17    7   41 1
    18    7   56 1
    19    8   42 1
    20    8   43 1
    21    9   10 1
    22    9   21 1
    23    9   11 1
    24    9   56 1
    25   11   16 ar
    26   11   12 ar
    27   12   13 ar
    28   12   44 1
    29   13   14 ar
    30   13   45 1
    31   14   15 ar
    32   14   46 1
    33   15   20 ar
    34   15   16 ar
    35   16   17 ar
    36   17   18 ar
    37   17   21 1
    38   18   19 ar
    39   18   47 1
    40   19   20 ar
    41   19   48 1
    42   20   49 1
    43   21   22 1
    44   21   23 1
    45   23   24 1
    46   23   50 1
    47   24   25 2
    48   24   26 2
    49   24   27 1
    50   27   32 ar
    51   27   28 ar
    52   28   29 ar
    53   28   51 1
    54   29   30 ar
    55   29   52 1
    56   30   31 ar
    57   30   53 1
    58   31   32 ar
    59   31   54 1
    60   32   55 1
    61   56   57 1
@<TRIPOS>MOLECULE
ZINC38915623
   34    36     0     0     0
SMALL
USER_CHARGES

@<TRIPOS>ATOM
      1 C1          0.0047    1.3492    0.0458 C.ar      1 <0>        -0.0856
      2 C2          1.1924    2.0569    0.0374 C.ar      1 <0>        -0.0701
      3 C3          2.3985    1.3825    0.0120 C.ar      1 <0>        -0.0708
      4 C4          2.4172   -0.0004   -0.0049 C.ar      1 <0>        -0.0736
      5 C5          1.2292   -0.7078    0.0035 C.ar      1 <0>        -0.0685
      6 C6          0.0231   -0.0327    0.0289 C.ar      1 <0>        -0.0860
      7 C7          1.2492   -2.2146   -0.0155 C.3       1 <0>        -0.0360
      8 H1          2.1760   -2.6028    0.4069 H         1 <0>         0.2208
      9 N1          0.0630   -2.7809    0.6685 N.2       1 <0>         0.0379
     10 N2         -0.7099   -3.4512    0.0218 N.2       1 <0>        -0.1729
     11 C8         -0.5690   -3.7318   -1.3199 C.cat     1 <0>         0.3757
     12 N3         -1.3505   -4.4467   -2.1086 N.am      1 <0>        -0.5017
     13 C9         -1.0343   -4.6027   -3.4054 C.2       1 <0>         0.6790
     14 O1         -0.0273   -4.0849   -3.8531 O.2       1 <0>        -0.4791
     15 N4         -1.8319   -5.3323   -4.2104 N.am      1 <0>        -0.6234
     16 C10        -1.5542   -5.4180   -5.5797 C.ar      1 <0>         0.0848
     17 C11        -0.2389   -5.4279   -6.0236 C.ar      1 <0>        -0.0851
     18 C12         0.0322   -5.5125   -7.3755 C.ar      1 <0>        -0.1063
     19 C13        -1.0046   -5.5868   -8.2876 C.ar      1 <0>        -0.0765
     20 C14        -2.3164   -5.5768   -7.8507 C.ar      1 <0>        -0.1307
     21 C15        -2.5952   -5.4990   -6.4983 C.ar      1 <0>         0.0986
     22 F1         -3.8767   -5.4957   -6.0706 F         1 <0>        -0.1299
     23 S1          0.9546   -2.8717   -1.7136 S.3       1 <0>         0.2421
     24 I1          4.2453   -1.0230   -0.0441 I         1 <0>        -0.0076
     25 H2         -0.9377    1.8763    0.0702 H         1 <0>         0.1498
     26 H3          1.1777    3.1367    0.0503 H         1 <0>         0.1522
     27 H4          3.3263    1.9353    0.0051 H         1 <0>         0.1509
     28 H5         -0.9049   -0.5852    0.0358 H         1 <0>         0.1290
     29 H6         -2.5983   -5.7981   -3.8409 H         1 <0>         0.4293
     30 H7          0.5719   -5.3692   -5.3126 H         1 <0>         0.1501
     31 H8          1.0555   -5.5202   -7.7207 H         1 <0>         0.1449
     32 H9         -0.7891   -5.6524   -9.3439 H         1 <0>         0.1471
     33 H10        -3.1238   -5.6342   -8.5656 H         1 <0>         0.1524
     34 H11        -2.1527   -4.8592   -1.7519 H         1 <0>         0.4587
@<TRIPOS>BOND
     1    1    6 ar
     2    1    2 ar
     3    1   25 1
     4    2    3 ar
     5    2   26 1
     6    3    4 ar
     7    3   27 1
     8    4    5 ar
     9    4   24 1
    10    5    6 ar
    11    5    7 1
    12    6   28 1
    13    7    8 1
    14    7   23 1
    15    7    9 1
    16    9   10 2
    17   10   11 1
    18   11   12 2
    19   11   23 1
    20   12   13 am
    21   12   34 1
    22   13   14 2
    23   13   15 am
    24   15   16 1
    25   15   29 1
    26   16   21 ar
    27   16   17 ar
    28   17   18 ar
    29   17   30 1
    30   18   19 ar
    31   18   31 1
    32   19   20 ar
    33   19   32 1
    34   20   21 ar
    35   20   33 1
    36   21   22 1
@<TRIPOS>MOLECULE
ZINC43741336
   71    75     0     0     0
SMALL
USER_CHARGES

@<TRIPOS>ATOM
      1 C1          0.5474    2.1501    0.8092 C.3       1 <0>        -0.1537
      2 C2          0.3624    0.6348    0.7053 C.3       1 <0>        -0.0771
      3 H1          0.7299    0.2961   -0.2634 H         1 <0>         0.0828
      4 C3         -1.1246    0.3033    0.8200 C.3       1 <0>        -0.1164
      5 C4         -1.6343    0.8273    2.1677 C.3       1 <0>        -0.0986
      6 C5         -0.8276    0.1848    3.2627 C.2       1 <0>        -0.1219
      7 C6          0.4005   -0.1988    3.0870 C.2       1 <0>        -0.1309
      8 C7          1.1617   -0.0393    1.8029 C.3       1 <0>         0.0033
      9 C8          1.6383   -1.4209    1.3600 C.3       1 <0>         0.1254
     10 H2          0.7727   -2.0553    1.1693 H         1 <0>         0.0575
     11 C9          2.5076   -2.0659    2.4426 C.3       1 <0>        -0.1321
     12 H3          3.4898   -1.6004    2.5243 H         1 <0>         0.1338
     13 C10         1.7655   -2.1362    3.7899 C.3       1 <0>         0.0942
     14 H4          2.4730   -2.4570    4.5545 H         1 <0>         0.0807
     15 C11         1.1432   -0.8567    4.2343 C.3       1 <0>        -0.0833
     16 O1          0.8062   -3.1804    3.5981 O.3       1 <0>        -0.3221
     17 C12         1.4286   -4.1777    2.9286 C.2       1 <0>         0.4780
     18 O2          1.1327   -5.3481    2.9788 O.2       1 <0>        -0.4330
     19 C13         2.5774   -3.5847    2.0906 C.3       1 <0>        -0.1497
     20 H5          2.4090   -3.7392    1.0249 H         1 <0>         0.1136
     21 C14         3.9241   -4.1739    2.5150 C.3       1 <0>         0.0691
     22 N1          4.9982   -3.5621    1.7212 N.3       1 <0>        -0.5327
     23 C15         4.9730   -4.0512    0.3355 C.3       1 <0>         0.0221
     24 C16         6.0666   -3.3471   -0.4707 C.3       1 <0>        -0.0064
     25 N2          7.3754   -3.6179    0.1385 N.4       1 <0>        -0.3845
     26 C17         7.3935   -3.1020    1.5137 C.3       1 <0>        -0.0053
     27 C18         6.3109   -3.8040    2.3363 C.3       1 <0>         0.0276
     28 C19         8.4267   -2.9567   -0.6461 C.3       1 <0>         0.0271
     29 C20         8.4093   -3.4953   -2.0781 C.3       1 <0>        -0.1406
     30 C21         9.5043   -2.8067   -2.8953 C.3       1 <0>        -0.1173
     31 C22        10.8677   -3.0886   -2.2609 C.3       1 <0>        -0.1318
     32 C23        10.8851   -2.5500   -0.8289 C.3       1 <0>        -0.1173
     33 C24         9.7902   -3.2386   -0.0117 C.3       1 <0>        -0.1405
     34 O3          2.4017   -1.2927    0.1588 O.3       1 <0>        -0.5471
     35 C25         2.4018    0.8112    2.0850 C.3       1 <0>        -0.1413
     36 H6          1.6052    2.3944    0.7127 H         1 <0>         0.0609
     37 H7         -0.0129    2.6400    0.0128 H         1 <0>         0.0542
     38 H8          0.1815    2.4953    1.7762 H         1 <0>         0.0589
     39 H9         -1.6715    0.7838    0.0087 H         1 <0>         0.0694
     40 H10        -1.2650   -0.7764    0.7690 H         1 <0>         0.0610
     41 H11        -1.5140    1.9098    2.2099 H         1 <0>         0.0830
     42 H12        -2.6866    0.5695    2.2875 H         1 <0>         0.0746
     43 H13        -1.2861    0.0369    4.2293 H         1 <0>         0.1113
     44 H14         1.9285   -0.1878    4.5864 H         1 <0>         0.1004
     45 H15         0.4470   -1.0522    5.0499 H         1 <0>         0.0917
     46 H16         4.0927   -3.9704    3.5724 H         1 <0>         0.0948
     47 H17         3.9179   -5.2511    2.3488 H         1 <0>         0.0656
     48 H18         5.1497   -5.1267    0.3261 H         1 <0>         0.0654
     49 H19         4.0002   -3.8382   -0.1078 H         1 <0>         0.1199
     50 H20         6.0590   -3.7188   -1.4954 H         1 <0>         0.1379
     51 H21         5.8820   -2.2728   -0.4726 H         1 <0>         0.1412
     52 H22         8.3695   -3.2919    1.9602 H         1 <0>         0.1377
     53 H23         7.2021   -2.0290    1.5017 H         1 <0>         0.1390
     54 H24         6.3142   -3.4106    3.3529 H         1 <0>         0.1251
     55 H25         6.5096   -4.8755    2.3599 H         1 <0>         0.0635
     56 H26         8.2478   -1.8816   -0.6601 H         1 <0>         0.1378
     57 H27         8.5883   -4.5704   -2.0641 H         1 <0>         0.0853
     58 H28         7.4380   -3.2945   -2.5300 H         1 <0>         0.0875
     59 H29         9.4919   -3.1903   -3.9154 H         1 <0>         0.0848
     60 H30         9.3254   -1.7315   -2.9092 H         1 <0>         0.0749
     61 H31        11.0466   -4.1637   -2.2469 H         1 <0>         0.0698
     62 H32        11.6478   -2.5980   -2.8430 H         1 <0>         0.0797
     63 H33        11.8564   -2.7508   -0.3769 H         1 <0>         0.0847
     64 H34        10.7062   -1.4749   -0.8429 H         1 <0>         0.0748
     65 H35         9.8025   -2.8550    1.0085 H         1 <0>         0.0871
     66 H36         9.9691   -4.3138    0.0023 H         1 <0>         0.0854
     67 H37         2.7392   -2.1316   -0.1841 H         1 <0>         0.3635
     68 H38         2.0944    1.8072    2.4041 H         1 <0>         0.0644
     69 H39         2.9917    0.3432    2.8731 H         1 <0>         0.0497
     70 H40         3.0027    0.8893    1.1790 H         1 <0>         0.0655
     71 H41         7.5411   -4.6131    0.1507 H         1 <0>         0.4179
@<TRIPOS>BOND
     1    1    2 1
     2    1   36 1
     3    1   37 1
     4    1   38 1
     5    2    3 1
     6    2    8 1
     7    2    4 1
     8    4    5 1
     9    4   39 1
    10    4   40 1
    11    5    6 1
    12    5   41 1
    13    5   42 1
    14    6    7 2
    15    6   43 1
    16    7   15 1
    17    7    8 1
    18    8    9 1
    19    8   35 1
    20    9   10 1
    21    9   11 1
    22    9   34 1
    23   11   12 1
    24   11   19 1
    25   11   13 1
    26   13   14 1
    27   13   15 1
    28   13   16 1
    29   15   44 1
    30   15   45 1
    31   16   17 1
    32   17   18 2
    33   17   19 1
    34   19   20 1
    35   19   21 1
    36   21   22 1
    37   21   46 1
    38   21   47 1
    39   22   27 1
    40   22   23 1
    41   23   24 1
    42   23   48 1
    43   23   49 1
    44   24   25 1
    45   24   50 1
    46   24   51 1
    47   25   26 1
    48   25   28 1
    49   25   71 1
    50   26   27 1
    51   26   52 1
    52   26   53 1
    53   27   54 1
    54   27   55 1
    55   28   33 1
    56   28   29 1
    57   28   56 1
    58   29   30 1
    59   29   57 1
    60   29   58 1
    61   30   31 1
    62   30   59 1
    63   30   60 1
    64   31   32 1
    65   31   61 1
    66   31   62 1
    67   32   33 1
    68   32   63 1
    69   32   64 1
    70   33   65 1
    71   33   66 1
    72   34   67 1
    73   35   68 1
    74   35   69 1
    75   35   70 1
@<TRIPOS>MOLECULE
ZINC63627311
   48    52     0     0     0
SMALL
USER_CHARGES

@<TRIPOS>ATOM
      1 C1         -4.9106  -12.1113    0.2358 C.3       1 <0>         0.0920
      2 N1         -5.6541  -10.8636    0.0442 N.am      1 <0>        -0.5498
      3 C2         -5.1228   -9.5745    0.0717 C.ar      1 <0>         0.1327
      4 C3         -3.8446   -9.0759    0.2687 C.ar      1 <0>        -0.1221
      5 C4         -3.6269   -7.7122    0.2385 C.ar      1 <0>         0.0013
      6 C5         -4.6809   -6.8440    0.0126 C.ar      1 <0>        -0.6778
      7 C6         -5.9573   -7.3336   -0.1845 C.ar      1 <0>         0.0299
      8 C7         -6.1855   -8.7005   -0.1564 C.ar      1 <0>         0.0174
      9 O1         -7.3009   -9.4550   -0.3120 O.3       1 <0>        -0.2278
     10 C8         -6.9755  -10.7522   -0.1965 C.2       1 <0>         0.6363
     11 O2         -7.7530  -11.6823   -0.2910 O.2       1 <0>        -0.4637
     12 S1         -4.3932   -5.1060   -0.0229 S.o2      1 <0>         2.6935
     13 O3         -5.5950   -4.4864    0.4142 O.2       1 <0>        -0.9313
     14 O4         -3.1456   -4.8876    0.6212 O.2       1 <0>        -0.9347
     15 N2         -4.1888   -4.6760   -1.6090 N.pl3     1 <0>        -1.0690
     16 C9         -3.1196   -5.1966   -2.3415 C.ar      1 <0>         0.1617
     17 C10        -1.8322   -4.7203   -2.1284 C.ar      1 <0>        -0.0957
     18 C11        -0.7772   -5.2376   -2.8540 C.ar      1 <0>        -0.0727
     19 C12        -1.0013   -6.2284   -3.7923 C.ar      1 <0>        -0.1216
     20 C13        -2.2816   -6.7049   -4.0070 C.ar      1 <0>        -0.0941
     21 C14        -3.3403   -6.1960   -3.2807 C.ar      1 <0>        -0.1037
     22 C15         0.1523   -6.7899   -4.5829 C.3       1 <0>         0.1385
     23 H1          1.0937   -6.5742   -4.0778 H         1 <0>         0.1866
     24 C16         0.1627   -6.2041   -5.9772 C.2       1 <0>         0.0698
     25 C17         0.0180   -7.2490   -6.8237 C.ar      1 <0>        -0.1646
     26 C18        -0.0473   -7.3411   -8.2872 C.ar      1 <0>        -0.0009
     27 C19        -0.2000   -8.5566   -8.8621 C.ar      1 <0>        -0.0798
     28 C20        -0.2973   -9.7276   -8.0957 C.ar      1 <0>         0.0604
     29 C21        -0.2457   -9.7223   -6.7471 C.ar      1 <0>        -0.1934
     30 C22        -0.0871   -8.4994   -6.0382 C.ar      1 <0>         0.3354
     31 N3         -0.0094   -8.2380   -4.7544 N.pl3     1 <0>        -0.5734
     32 Cl1        -0.2783   -8.6697  -10.5927 Cl        1 <0>        -0.0120
     33 H2         -5.5932  -12.9572    0.1546 H         1 <0>         0.1049
     34 H3         -4.1370  -12.1942   -0.5277 H         1 <0>         0.0817
     35 H4         -4.4482  -12.1109    1.2229 H         1 <0>         0.0859
     36 H5         -3.0211   -9.7518    0.4458 H         1 <0>         0.1478
     37 H6         -2.6315   -7.3222    0.3919 H         1 <0>         0.1575
     38 H7         -6.7766   -6.6522   -0.3604 H         1 <0>         0.1615
     39 H8         -4.8115   -4.0625   -2.0293 H         1 <0>         0.4355
     40 H9         -1.6566   -3.9459   -1.3962 H         1 <0>         0.1546
     41 H10         0.2239   -4.8677   -2.6888 H         1 <0>         0.1474
     42 H11        -2.4532   -7.4788   -4.7405 H         1 <0>         0.1245
     43 H12        -4.3393   -6.5718   -3.4457 H         1 <0>         0.1425
     44 H13         0.2646   -5.1623   -6.2431 H         1 <0>         0.2150
     45 H14         0.0252   -6.4520   -8.8960 H         1 <0>         0.1746
     46 H15        -0.4187  -10.6718   -8.6057 H         1 <0>         0.1712
     47 H16        -0.3253  -10.6519   -6.2031 H         1 <0>         0.1709
     48 H17        -0.0520   -8.8915   -4.0389 H         1 <0>         0.4572
@<TRIPOS>BOND
     1    1    2 1
     2    1   33 1
     3    1   34 1
     4    1   35 1
     5    2   10 am
     6    2    3 1
     7    3    8 ar
     8    3    4 ar
     9    4    5 ar
    10    4   36 1
    11    5    6 ar
    12    5   37 1
    13    6    7 ar
    14    6   12 1
    15    7    8 ar
    16    7   38 1
    17    8    9 1
    18    9   10 1
    19   10   11 2
    20   12   13 2
    21   12   14 2
    22   12   15 1
    23   15   16 1
    24   15   39 1
    25   16   21 ar
    26   16   17 ar
    27   17   18 ar
    28   17   40 1
    29   18   19 ar
    30   18   41 1
    31   19   20 ar
    32   19   22 1
    33   20   21 ar
    34   20   42 1
    35   21   43 1
    36   22   23 1
    37   22   31 1
    38   22   24 1
    39   24   25 2
    40   24   44 1
    41   25   30 ar
    42   25   26 ar
    43   26   27 ar
    44   26   45 1
    45   27   28 ar
    46   27   32 1
    47   28   29 ar
    48   28   46 1
    49   29   30 ar
    50   29   47 1
    51   30   31 2
    52   31   48 1
@<TRIPOS>MOLECULE
ZINC06807750
   57    60     0     0     0
SMALL
USER_CHARGES
2-(7,9-dimethyl-5-oxo-4-phenyl-3,4,8-triazabicyclo[4.3.0]nona-2,6,9-trien-8-yl)-N-(2,4-dimethylphenyl)-propanamide
@<TRIPOS>ATOM
      1 C1         10.1644    4.4309    5.6422 C.3       1 <0>        -0.1157
      2 C2          9.5274    3.7157    4.4787 C.ar      1 <0>        -0.0921
      3 C3          8.2284    4.0164    4.1113 C.ar      1 <0>        -0.1073
      4 C4          7.6418    3.3625    3.0458 C.ar      1 <0>        -0.1165
      5 C5          8.3577    2.4020    2.3430 C.ar      1 <0>         0.1313
      6 C6          9.6597    2.0983    2.7179 C.ar      1 <0>        -0.1059
      7 C7         10.2428    2.7601    3.7811 C.ar      1 <0>        -0.1032
      8 C8         10.4379    1.0524    1.9620 C.3       1 <0>        -0.1170
      9 N1          7.7661    1.7376    1.2629 N.am      1 <0>        -0.6606
     10 C9          6.4326    1.5436    1.2396 C.2       1 <0>         0.5020
     11 O1          5.7365    2.0102    2.1163 O.2       1 <0>        -0.4890
     12 C10         5.8065    0.7468    0.1241 C.3       1 <0>         0.1087
     13 H1          6.2195   -0.2619    0.1220 H         1 <0>         0.1350
     14 C11         6.1051    1.4230   -1.2155 C.3       1 <0>        -0.1703
     15 N2          4.3569    0.6806    0.3253 N.pl3     1 <0>        -0.4138
     16 C12         3.5519    1.7621    0.5133 C.2       1 <0>         0.1160
     17 C13         2.2767    1.3282    0.6642 C.2       1 <0>        -0.1879
     18 C14         0.9690    1.9472    0.8913 C.2       1 <0>         0.1738
     19 N3         -0.0892    1.2015    0.9898 N.2       1 <0>        -0.2591
     20 N4         -0.0645   -0.1875    0.8914 N.am      1 <0>        -0.3925
     21 C15         1.0729   -0.8828    0.6832 C.2       1 <0>         0.5691
     22 O2          1.0522   -2.0978    0.6035 O.2       1 <0>        -0.5217
     23 C16         2.3330   -0.1472    0.5554 C.2       1 <0>        -0.2213
     24 C17         3.6373   -0.4611    0.3492 C.2       1 <0>         0.1220
     25 C18         4.1900   -1.8524    0.1763 C.3       1 <0>        -0.0958
     26 C19        -1.2678   -0.8903    1.0129 C.ar      1 <0>         0.1559
     27 C20        -1.6098   -1.8530    0.0716 C.ar      1 <0>        -0.1022
     28 C21        -2.7959   -2.5490    0.1977 C.ar      1 <0>        -0.1077
     29 C22        -3.6483   -2.2802    1.2530 C.ar      1 <0>        -0.1210
     30 C23        -3.3136   -1.3184    2.1887 C.ar      1 <0>        -0.1102
     31 C24        -2.1262   -0.6230    2.0720 C.ar      1 <0>        -0.1086
     32 C25         4.0027    3.1997    0.5477 C.3       1 <0>        -0.0913
     33 H2          9.9694    3.8766    6.5603 H         1 <0>         0.0711
     34 H3         11.2402    4.5003    5.4812 H         1 <0>         0.0668
     35 H4          9.7442    5.4331    5.7268 H         1 <0>         0.0674
     36 H5          7.6722    4.7631    4.6584 H         1 <0>         0.1262
     37 H6          6.6273    3.5974    2.7596 H         1 <0>         0.1461
     38 H7         11.2568    2.5273    4.0707 H         1 <0>         0.1268
     39 H8         10.9783    1.5242    1.1413 H         1 <0>         0.0731
     40 H9         11.1474    0.5706    2.6347 H         1 <0>         0.0739
     41 H10         9.7510    0.3060    1.5632 H         1 <0>         0.0617
     42 H11         8.3158    1.4167    0.5309 H         1 <0>         0.4118
     43 H12         7.1826    1.5398   -1.3313 H         1 <0>         0.0856
     44 H13         5.7170    0.8079   -2.0274 H         1 <0>         0.0862
     45 H14         5.6284    2.4028   -1.2421 H         1 <0>         0.0823
     46 H15         0.8851    3.0206    0.9761 H         1 <0>         0.1909
     47 H16         4.1798   -2.1187   -0.8806 H         1 <0>         0.0848
     48 H17         5.2136   -1.8858    0.5495 H         1 <0>         0.0675
     49 H18         3.5764   -2.5592    0.7350 H         1 <0>         0.0983
     50 H19        -0.9466   -2.0603   -0.7552 H         1 <0>         0.1247
     51 H20        -3.0603   -3.3007   -0.5312 H         1 <0>         0.1284
     52 H21        -4.5774   -2.8228    1.3468 H         1 <0>         0.1260
     53 H22        -3.9814   -1.1111    3.0117 H         1 <0>         0.1285
     54 H23        -1.8651    0.1274    2.8034 H         1 <0>         0.1272
     55 H24         4.1608    3.5063    1.5816 H         1 <0>         0.0937
     56 H25         4.9347    3.3017   -0.0082 H         1 <0>         0.0641
     57 H26         3.2384    3.8311    0.0944 H         1 <0>         0.0836
@<TRIPOS>BOND
     1    1    2 1
     2    1   33 1
     3    1   34 1
     4    1   35 1
     5    2    7 ar
     6    2    3 ar
     7    3    4 ar
     8    3   36 1
     9    4    5 ar
    10    4   37 1
    11    5    6 ar
    12    5    9 1
    13    6    7 ar
    14    6    8 1
    15    7   38 1
    16    8   39 1
    17    8   40 1
    18    8   41 1
    19    9   10 am
    20    9   42 1
    21   10   11 2
    22   10   12 1
    23   12   13 1
    24   12   14 1
    25   12   15 1
    26   14   43 1
    27   14   44 1
    28   14   45 1
    29   15   24 1
    30   15   16 1
    31   16   17 2
    32   16   32 1
    33   17   23 1
    34   17   18 1
    35   18   19 2
    36   18   46 1
    37   19   20 1
    38   20   21 am
    39   20   26 1
    40   21   22 2
    41   21   23 1
    42   23   24 2
    43   24   25 1
    44   25   47 1
    45   25   48 1
    46   25   49 1
    47   26   31 ar
    48   26   27 ar
    49   27   28 ar
    50   27   50 1
    51   28   29 ar
    52   28   51 1
    53   29   30 ar
    54   29   52 1
    55   30   31 ar
    56   30   53 1
    57   31   54 1
    58   32   55 1
    59   32   56 1
    60   32   57 1
@<TRIPOS>MOLECULE
ZINC09737244
   43    46     0     0     0
SMALL
USER_CHARGES
3-[(6-bromobenzo[1,3]dioxol-5-yl)methyl]-5-ethyl-5-phenyl-imidazolidine-2,4-dione
@<TRIPOS>ATOM
      1 C1          3.6081    0.2217    3.9553 C.3       1 <0>        -0.1663
      2 C2          5.0570    0.6497    4.1974 C.3       1 <0>        -0.1176
      3 C3          5.3588    1.9105    3.3850 C.3       1 <0>         0.1698
      4 C4          5.2398    1.6295    1.9002 C.2       1 <0>         0.5356
      5 O1          5.8913    0.8408    1.2497 O.2       1 <0>        -0.4450
      6 N1          4.2595    2.4393    1.4536 N.am      1 <0>        -0.5783
      7 C5          3.7513    3.1887    2.4386 C.2       1 <0>         0.7015
      8 O2          2.8591    3.9985    2.2799 O.2       1 <0>        -0.5283
      9 N2          4.3358    2.9429    3.6251 N.am      1 <0>        -0.7143
     10 C6          3.8100    2.4965    0.0604 C.3       1 <0>         0.1593
     11 C7          2.6450    1.5599   -0.1304 C.ar      1 <0>        -0.0613
     12 C8          2.0907    0.9168    0.9611 C.ar      1 <0>        -0.0962
     13 C9          1.0193    0.0563    0.7884 C.ar      1 <0>         0.0597
     14 C10         0.5020   -0.1596   -0.4869 C.ar      1 <0>         0.0402
     15 C11         1.0620    0.4871   -1.5762 C.ar      1 <0>        -0.0646
     16 C12         2.1321    1.3455   -1.3966 C.ar      1 <0>        -0.0787
     17 Br1         2.8943    2.2278   -2.8854 Br        1 <0>        -0.0191
     18 O3         -0.5379   -1.0388   -0.3928 O.3       1 <0>        -0.3006
     19 C13        -0.9134   -1.0428    0.9972 C.3       1 <0>         0.2120
     20 O4          0.2994   -0.6835    1.6819 O.3       1 <0>        -0.3018
     21 C14         6.7314    2.4370    3.7166 C.ar      1 <0>        -0.1019
     22 C15         7.7411    1.5611    4.0691 C.ar      1 <0>        -0.0914
     23 C16         9.0013    2.0437    4.3690 C.ar      1 <0>        -0.1167
     24 C17         9.2493    3.4029    4.3256 C.ar      1 <0>        -0.1058
     25 C18         8.2383    4.2792    3.9778 C.ar      1 <0>        -0.1174
     26 C19         6.9793    3.7963    3.6737 C.ar      1 <0>        -0.0998
     27 H1          3.4796   -0.0490    2.9073 H         1 <0>         0.0549
     28 H2          3.3732   -0.6373    4.5838 H         1 <0>         0.0745
     29 H3          2.9396    1.0463    4.2022 H         1 <0>         0.0633
     30 H4          5.7289   -0.1511    3.8885 H         1 <0>         0.0942
     31 H5          5.2022    0.8571    5.2576 H         1 <0>         0.0931
     32 H6          4.1265    3.3653    4.4729 H         1 <0>         0.4432
     33 H7          4.6268    2.1991   -0.5973 H         1 <0>         0.1222
     34 H8          3.5016    3.5138   -0.1804 H         1 <0>         0.1234
     35 H9          2.4932    1.0860    1.9489 H         1 <0>         0.1407
     36 H10         0.6629    0.3216   -2.5660 H         1 <0>         0.1519
     37 H11        -1.6896   -0.3013    1.1864 H         1 <0>         0.0898
     38 H12        -1.2503   -2.0342    1.3000 H         1 <0>         0.1384
     39 H13         7.5463    0.4995    4.1069 H         1 <0>         0.1306
     40 H14         9.7912    1.3590    4.6404 H         1 <0>         0.1293
     41 H15        10.2329    3.7802    4.5632 H         1 <0>         0.1269
     42 H16         8.4321    5.3411    3.9439 H         1 <0>         0.1273
     43 H17         6.1894    4.4809    3.4022 H         1 <0>         0.1231
@<TRIPOS>BOND
     1    1    2 1
     2    1   27 1
     3    1   28 1
     4    1   29 1
     5    2    3 1
     6    2   30 1
     7    2   31 1
     8    3    9 1
     9    3    4 1
    10    3   21 1
    11    4    5 2
    12    4    6 am
    13    6    7 am
    14    6   10 1
    15    7    8 2
    16    7    9 am
    17    9   32 1
    18   10   11 1
    19   10   33 1
    20   10   34 1
    21   11   16 ar
    22   11   12 ar
    23   12   13 ar
    24   12   35 1
    25   13   20 1
    26   13   14 ar
    27   14   15 ar
    28   14   18 1
    29   15   16 ar
    30   15   36 1
    31   16   17 1
    32   18   19 1
    33   19   20 1
    34   19   37 1
    35   19   38 1
    36   21   26 ar
    37   21   22 ar
    38   22   23 ar
    39   22   39 1
    40   23   24 ar
    41   23   40 1
    42   24   25 ar
    43   24   41 1
    44   25   26 ar
    45   25   42 1
    46   26   43 1
@<TRIPOS>MOLECULE
ZINC20704819
   52    56     0     0     0
SMALL
USER_CHARGES
[(3aR,4R,9bR)-4-(4-chloro-3-nitro-phenyl)-3a,4,5,9b-tetrahydro-3H-cyclopenta[c]quinolin-8-yl]-pyrrolidin-1-yl-methanone
@<TRIPOS>ATOM
      1 C1          4.3377    0.0828   -1.8239 C.ar      1 <0>        -0.0461
      2 C2          5.2810   -0.7206   -2.4368 C.ar      1 <0>        -0.1069
      3 C3          6.5888   -0.7185   -1.9860 C.ar      1 <0>         0.0159
      4 C4          6.9519    0.0878   -0.9218 C.ar      1 <0>        -0.0373
      5 C5          6.0093    0.8948   -0.3135 C.ar      1 <0>        -0.0298
      6 C6          4.7010    0.8881   -0.7608 C.ar      1 <0>        -0.0948
      7 C7          3.6722    1.7637   -0.0931 C.3       1 <0>         0.2028
      8 H1          4.0184    1.9832    0.9277 H         1 <0>         0.0844
      9 C8          3.4475    3.0241   -0.9090 C.3       1 <0>        -0.0867
     10 H2          3.2073    2.6282   -1.9068 H         1 <0>         0.1030
     11 C9          4.5909    4.0448   -0.9859 C.3       1 <0>        -0.0862
     12 C10         3.8225    5.3540   -1.1767 C.2       1 <0>        -0.1648
     13 C11         2.6017    5.2423   -0.6667 C.2       1 <0>        -0.1651
     14 C12         2.4589    3.8893   -0.0714 C.3       1 <0>        -0.0146
     15 H3          2.5887    4.0585    1.0077 H         1 <0>         0.1003
     16 C13         1.1602    3.1834   -0.0291 C.ar      1 <0>        -0.1592
     17 C14        -0.0400    3.8509   -0.0251 C.ar      1 <0>        -0.0731
     18 C15        -1.2409    3.1386    0.0357 C.ar      1 <0>        -0.1896
     19 C16        -1.2151    1.7415    0.0861 C.ar      1 <0>        -0.0118
     20 C17        -0.0126    1.0758    0.0816 C.ar      1 <0>        -0.2023
     21 C18         1.1870    1.7814    0.0163 C.ar      1 <0>         0.2466
     22 N1          2.3882    1.0747   -0.0244 N.pl3     1 <0>        -0.7470
     23 C19        -2.5294    3.8568    0.0414 C.2       1 <0>         0.5792
     24 O1         -3.5714    3.2371   -0.0526 O.2       1 <0>        -0.5427
     25 N2         -2.5517    5.2000    0.1506 N.am      1 <0>        -0.6195
     26 C20        -1.3726    6.0779    0.1681 C.3       1 <0>         0.0854
     27 C21        -1.8814    7.5255    0.3327 C.3       1 <0>        -0.1396
     28 C22        -3.2802    7.3290    0.9746 C.3       1 <0>        -0.1290
     29 C23        -3.7623    6.0316    0.2788 C.3       1 <0>         0.1081
     30 N3          8.3511    0.0910   -0.4392 N.pl3     1 <0>         0.0243
     31 O2          8.6706    0.8008    0.4975 O.2       1 <0>        -0.1566
     32 O3          9.1830   -0.6163   -0.9789 O.3       1 <0>        -0.1314
     33 Cl1         7.7741   -1.7268   -2.7556 Cl        1 <0>         0.0014
     34 H4          3.3165    0.0810   -2.1754 H         1 <0>         0.1538
     35 H5          4.9969   -1.3500   -3.2671 H         1 <0>         0.1602
     36 H6          6.2936    1.5277    0.5141 H         1 <0>         0.1637
     37 H7          5.1726    4.0148   -0.0527 H         1 <0>         0.0837
     38 H8          5.2461    3.7983   -1.8344 H         1 <0>         0.0725
     39 H9          4.1377    6.2969   -1.6475 H         1 <0>         0.1341
     40 H10         1.8978    6.0848   -0.7352 H         1 <0>         0.1343
     41 H11        -0.0559    4.9299   -0.0693 H         1 <0>         0.1581
     42 H12        -2.1399    1.1856    0.1328 H         1 <0>         0.1339
     43 H13         0.0023   -0.0032    0.1247 H         1 <0>         0.1271
     44 H14         2.3543   -0.0246   -0.0037 H         1 <0>         0.4240
     45 H15        -0.7207    5.7996    1.0093 H         1 <0>         0.0781
     46 H16        -0.8195    5.9679   -0.7763 H         1 <0>         0.0773
     47 H17        -1.1918    8.0849    0.9820 H         1 <0>         0.0849
     48 H18        -1.9317    8.0108   -0.6532 H         1 <0>         0.0788
     49 H19        -3.1720    7.2231    2.0641 H         1 <0>         0.0787
     50 H20        -3.9117    8.2017    0.7519 H         1 <0>         0.0879
     51 H21        -4.1753    6.2344   -0.7204 H         1 <0>         0.0706
     52 H22        -4.5108    5.4988    0.8837 H         1 <0>         0.0805
@<TRIPOS>BOND
     1    1    6 ar
     2    1    2 ar
     3    1   34 1
     4    2    3 ar
     5    2   35 1
     6    3    4 ar
     7    3   33 1
     8    4    5 ar
     9    4   30 1
    10    5    6 ar
    11    5   36 1
    12    6    7 1
    13    7    8 1
    14    7   22 1
    15    7    9 1
    16    9   10 1
    17    9   14 1
    18    9   11 1
    19   11   12 1
    20   11   37 1
    21   11   38 1
    22   12   13 2
    23   12   39 1
    24   13   14 1
    25   13   40 1
    26   14   15 1
    27   14   16 1
    28   16   21 ar
    29   16   17 ar
    30   17   18 ar
    31   17   41 1
    32   18   19 ar
    33   18   23 1
    34   19   20 ar
    35   19   42 1
    36   20   21 ar
    37   20   43 1
    38   21   22 1
    39   22   44 1
    40   23   24 2
    41   23   25 am
    42   25   29 1
    43   25   26 1
    44   26   27 1
    45   26   45 1
    46   26   46 1
    47   27   28 1
    48   27   47 1
    49   27   48 1
    50   28   29 1
    51   28   49 1
    52   28   50 1
    53   29   51 1
    54   29   52 1
    55   30   31 2
    56   30   32 1
@<TRIPOS>MOLECULE
ZINC08613853
   46    49     0     0     0
SMALL
USER_CHARGES

@<TRIPOS>ATOM
      1 C1         -0.0013    1.5389    0.0031 C.3       1 <0>        -0.1616
      2 C2          0.0104    0.0089    0.0019 C.3       1 <0>         0.1282
      3 H1         -1.0144   -0.3623    0.0144 H         1 <0>         0.1507
      4 C3          0.7091   -0.4871   -1.2377 C.2       1 <0>         0.5160
      5 O1          1.7019   -1.1769   -1.1393 O.2       1 <0>        -0.4878
      6 N1          0.2309   -0.1642   -2.4557 N.am      1 <0>        -0.6692
      7 C4          0.9423   -0.5260   -3.6051 C.ar      1 <0>         0.2014
      8 C5          2.3141   -0.7330   -3.5382 C.ar      1 <0>        -0.1331
      9 C6          3.0132   -1.0900   -4.6743 C.ar      1 <0>        -0.0626
     10 C7          2.3489   -1.2410   -5.8780 C.ar      1 <0>        -0.1367
     11 C8          0.9835   -1.0353   -5.9479 C.ar      1 <0>        -0.0507
     12 C9          0.2773   -0.6845   -4.8137 C.ar      1 <0>        -0.2186
     13 C10        -1.2120   -0.4675   -4.8894 C.3       1 <0>         0.5083
     14 F1         -1.6488   -0.6841   -6.2007 F         1 <0>        -0.1704
     15 F2         -1.8579   -1.3619   -4.0290 F         1 <0>        -0.1741
     16 F3         -1.5120    0.8448   -4.5086 F         1 <0>        -0.1788
     17 N2          0.7196   -0.4750    1.1890 N.am      1 <0>        -0.4273
     18 C11         0.0764   -1.2590    2.0753 C.2       1 <0>         0.5392
     19 O2         -1.0890   -1.5694    1.8983 O.2       1 <0>        -0.5089
     20 C12         0.7886   -1.7226    3.2321 C.2       1 <0>        -0.1607
     21 C13         0.2963   -2.5724    4.3136 C.2       1 <0>        -0.0677
     22 C14         1.1677   -2.8740    5.3013 C.2       1 <0>        -0.1371
     23 S1          2.6729   -2.0538    4.8509 S.3       1 <0>         0.2107
     24 C15         2.1251   -1.3064    3.3361 C.2       1 <0>        -0.0091
     25 N3          2.7031   -0.5296    2.4251 N.2       1 <0>        -0.1722
     26 N4          2.0587   -0.1222    1.3860 N.2       1 <0>         0.1146
     27 C16         0.9103   -3.7182    6.5120 C.3       1 <0>        -0.0433
     28 C17        -0.6073   -3.8942    6.6652 C.3       1 <0>        -0.1163
     29 C18        -1.1950   -4.2926    5.3082 C.3       1 <0>        -0.1246
     30 C19        -1.1330   -3.1063    4.3457 C.3       1 <0>        -0.0597
     31 H2          1.0235    1.9100   -0.0094 H         1 <0>         0.0835
     32 H3         -0.5290    1.8989   -0.8801 H         1 <0>         0.0884
     33 H4         -0.5067    1.8976    0.8997 H         1 <0>         0.0836
     34 H5         -0.6063    0.3190   -2.5356 H         1 <0>         0.4147
     35 H6          2.8335   -0.6145   -2.5988 H         1 <0>         0.1577
     36 H7          4.0798   -1.2510   -4.6230 H         1 <0>         0.1385
     37 H8          2.8980   -1.5199   -6.7652 H         1 <0>         0.1384
     38 H9          0.4677   -1.1537   -6.8894 H         1 <0>         0.1439
     39 H10         1.3823   -4.6927    6.3871 H         1 <0>         0.0942
     40 H11         1.3138   -3.2248    7.3962 H         1 <0>         0.0918
     41 H12        -0.8128   -4.6760    7.3963 H         1 <0>         0.0802
     42 H13        -1.0528   -2.9557    6.9952 H         1 <0>         0.0717
     43 H14        -0.6228   -5.1236    4.8957 H         1 <0>         0.0678
     44 H15        -2.2329   -4.5990    5.4390 H         1 <0>         0.0756
     45 H16        -1.8082   -2.3224    4.6889 H         1 <0>         0.0831
     46 H17        -1.4244   -3.4304    3.3466 H         1 <0>         0.0888
@<TRIPOS>BOND
     1    1    2 1
     2    1   31 1
     3    1   32 1
     4    1   33 1
     5    2    3 1
     6    2    4 1
     7    2   17 1
     8    4    5 2
     9    4    6 am
    10    6    7 1
    11    6   34 1
    12    7   12 ar
    13    7    8 ar
    14    8    9 ar
    15    8   35 1
    16    9   10 ar
    17    9   36 1
    18   10   11 ar
    19   10   37 1
    20   11   12 ar
    21   11   38 1
    22   12   13 1
    23   13   14 1
    24   13   15 1
    25   13   16 1
    26   17   26 1
    27   17   18 am
    28   18   19 2
    29   18   20 1
    30   20   24 2
    31   20   21 1
    32   21   30 1
    33   21   22 2
    34   22   23 1
    35   22   27 1
    36   23   24 1
    37   24   25 1
    38   25   26 2
    39   27   28 1
    40   27   39 1
    41   27   40 1
    42   28   29 1
    43   28   41 1
    44   28   42 1
    45   29   30 1
    46   29   43 1
    47   29   44 1
    48   30   45 1
    49   30   46 1
@<TRIPOS>MOLECULE
ZINC00866924
   51    54     0     0     0
SMALL
USER_CHARGES

@<TRIPOS>ATOM
      1 C1         -0.0373    1.4608    0.0112 C.3       1 <0>         0.0781
      2 N1         -0.0033   -0.0037    0.0023 N.am      1 <0>        -0.5975
      3 C2          0.1377   -0.7408    1.2605 C.3       1 <0>         0.1414
      4 C3         -1.0355   -0.4040    2.1831 C.3       1 <0>        -0.1274
      5 C4         -0.8883   -1.1738    3.4971 C.3       1 <0>        -0.1169
      6 C5          0.4244   -0.7777    4.1759 C.3       1 <0>        -0.1220
      7 C6          1.5976   -1.1145    3.2534 C.3       1 <0>        -0.1170
      8 C7          1.4504   -0.3447    1.9393 C.3       1 <0>        -0.1266
      9 C8         -0.1016   -0.6730   -1.1634 C.2       1 <0>         0.5955
     10 O1         -0.1719   -1.8867   -1.1635 O.2       1 <0>        -0.5071
     11 C9         -0.1240    0.0680   -2.4407 C.2       1 <0>         0.0829
     12 C10        -0.3329   -0.4927   -3.7214 C.2       1 <0>        -0.1873
     13 C11        -0.2802    0.5118   -4.6190 C.2       1 <0>         0.3855
     14 N2         -0.0440    1.6752   -3.9424 N.pl3     1 <0>        -0.3859
     15 N3          0.0422    1.3717   -2.5843 N.2       1 <0>        -0.2332
     16 C12         0.0822    2.9826   -4.5928 C.3       1 <0>         0.1337
     17 H1         -0.8528    3.5333   -4.4899 H         1 <0>         0.1349
     18 C13         0.3918    2.7696   -6.0789 C.3       1 <0>        -0.1548
     19 C14        -0.6035    1.7724   -6.6820 C.3       1 <0>         0.2435
     20 H2         -0.4101    1.6621   -7.7490 H         1 <0>         0.1427
     21 N4         -0.4289    0.4699   -6.0093 N.pl3     1 <0>        -0.7180
     22 C15        -2.0100    2.2709   -6.4714 C.2       1 <0>        -0.0571
     23 C16        -2.7689    2.8956   -7.3896 C.2       1 <0>        -0.1806
     24 C17        -4.0065    3.1846   -6.7702 C.2       1 <0>        -0.2137
     25 C18        -3.9298    2.7192   -5.5105 C.2       1 <0>        -0.0269
     26 O2         -2.7204    2.1616   -5.3369 O.3       1 <0>        -0.1661
     27 C19         1.2171    3.7730   -3.9385 C.3       1 <0>         0.4562
     28 F1          2.4170    3.0670   -4.0764 F         1 <0>        -0.1710
     29 F2          1.3358    5.0204   -4.5608 F         1 <0>        -0.1705
     30 F3          0.9363    3.9544   -2.5800 F         1 <0>        -0.1594
     31 Cl1        -0.6065   -2.1703   -4.0744 Cl        1 <0>        -0.0134
     32 H3          0.9623    1.8487   -0.1848 H         1 <0>         0.0611
     33 H4         -0.7215    1.8131   -0.7608 H         1 <0>         0.0845
     34 H5         -0.3781    1.8104    0.9858 H         1 <0>         0.0723
     35 H6          0.1431   -1.8114    1.0558 H         1 <0>         0.1041
     36 H7         -1.0409    0.6666    2.3878 H         1 <0>         0.0665
     37 H8         -1.9707   -0.6862    1.6994 H         1 <0>         0.0668
     38 H9         -1.7241   -0.9338    4.1543 H         1 <0>         0.0662
     39 H10        -0.8828   -2.2444    3.2923 H         1 <0>         0.0657
     40 H11         0.4190    0.2929    4.3807 H         1 <0>         0.0623
     41 H12         0.5293   -1.3261    5.1121 H         1 <0>         0.0642
     42 H13         2.5328   -0.8323    3.7370 H         1 <0>         0.0663
     43 H14         1.6030   -2.1851    3.0486 H         1 <0>         0.0654
     44 H15         2.2862   -0.5847    1.2821 H         1 <0>         0.0660
     45 H16         1.4449    0.7259    2.1441 H         1 <0>         0.0665
     46 H17         0.3144    3.7213   -6.6047 H         1 <0>         0.1276
     47 H18         1.4042    2.3800   -6.1855 H         1 <0>         0.1110
     48 H19        -0.4177   -0.3655   -6.5022 H         1 <0>         0.4316
     49 H20        -2.4867    3.1318   -8.4050 H         1 <0>         0.1533
     50 H21        -4.8512    3.6836   -7.2216 H         1 <0>         0.1523
     51 H22        -4.7100    2.7799   -4.7661 H         1 <0>         0.2040
@<TRIPOS>BOND
     1    1    2 1
     2    1   32 1
     3    1   33 1
     4    1   34 1
     5    2    3 1
     6    2    9 am
     7    3    8 1
     8    3    4 1
     9    3   35 1
    10    4    5 1
    11    4   36 1
    12    4   37 1
    13    5    6 1
    14    5   38 1
    15    5   39 1
    16    6    7 1
    17    6   40 1
    18    6   41 1
    19    7    8 1
    20    7   42 1
    21    7   43 1
    22    8   44 1
    23    8   45 1
    24    9   10 2
    25    9   11 1
    26   11   15 2
    27   11   12 1
    28   12   13 2
    29   12   31 1
    30   13   21 1
    31   13   14 1
    32   14   15 1
    33   14   16 1
    34   16   17 1
    35   16   18 1
    36   16   27 1
    37   18   19 1
    38   18   46 1
    39   18   47 1
    40   19   20 1
    41   19   21 1
    42   19   22 1
    43   21   48 1
    44   22   26 1
    45   22   23 2
    46   23   24 1
    47   23   49 1
    48   24   25 2
    49   24   50 1
    50   25   26 1
    51   25   51 1
    52   27   28 1
    53   27   29 1
    54   27   30 1
@<TRIPOS>MOLECULE
ZINC01924294
   46    50     0     0     0
SMALL
USER_CHARGES
N-(3-cyano-4,5,6,7-tetrahydrobenzothiophen-2-yl)-2-BLAHylsulfanyl-acetamide
@<TRIPOS>ATOM
      1 C1         -0.0126    1.0758    0.0080 C.ar      1 <0>        -0.1143
      2 C2          1.1816    1.7816    0.0003 C.ar      1 <0>        -0.0777
      3 C3          1.1822    3.1609    0.0077 C.ar      1 <0>        -0.1246
      4 C4         -0.0206    3.8548    0.0230 C.ar      1 <0>         0.1312
      5 C5         -1.2323    3.1418    0.0307 C.ar      1 <0>        -0.0705
      6 C6         -1.2166    1.7439    0.0173 C.ar      1 <0>        -0.0745
      7 C7         -2.4982    3.8816    0.0485 C.2       1 <0>        -0.0699
      8 C8         -2.4713    5.2334    0.0539 C.2       1 <0>        -0.0800
      9 C9         -1.2369    5.9248    0.0448 C.2       1 <0>         0.2135
     10 N1         -0.0433    5.2387    0.0301 N.pl3     1 <0>        -0.3884
     11 C10         0.9354    6.1890    0.0250 C.2       1 <0>         0.1244
     12 N2          0.3396    7.3612    0.0361 N.2       1 <0>        -0.2611
     13 N3         -0.9372    7.2108    0.0477 N.2       1 <0>        -0.2621
     14 S1          2.6734    5.8998    0.0064 S.3       1 <0>         0.1035
     15 C11         3.2760    7.6066    0.0087 C.3       1 <0>        -0.1588
     16 C12         4.7829    7.6072   -0.0062 C.2       1 <0>         0.5344
     17 O1          5.3897    6.5571   -0.0173 O.2       1 <0>        -0.4808
     18 N4          5.4563    8.7747   -0.0073 N.am      1 <0>        -0.6129
     19 C13         6.8443    8.7753   -0.0210 C.2       1 <0>         0.0848
     20 C14         7.7054    9.8623   -0.0300 C.2       1 <0>        -0.1219
     21 C15         9.1320    9.5897   -0.0401 C.2       1 <0>        -0.0611
     22 C16         9.4673    8.2805   -0.0503 C.2       1 <0>        -0.2031
     23 S2          7.9212    7.4181   -0.0388 S.3       1 <0>         0.2579
     24 C17        10.8485    7.7021   -0.0683 C.3       1 <0>        -0.0370
     25 C18        11.8341    8.8157   -0.4513 C.3       1 <0>        -0.1158
     26 C19        11.5309   10.0556    0.3949 C.3       1 <0>        -0.1200
     27 C20        10.2027   10.6738   -0.0451 C.3       1 <0>        -0.0625
     28 C21         7.2063   11.2046   -0.0252 C.1       1 <0>         0.2651
     29 N5          6.8104   12.2693   -0.0215 N.1       1 <0>        -0.4193
     30 H1          0.0021   -0.0041    0.0020 H         1 <0>         0.1400
     31 H2          2.1194    1.2462   -0.0118 H         1 <0>         0.1422
     32 H3          2.1175    3.7009    0.0014 H         1 <0>         0.1369
     33 H4         -2.1441    1.1907    0.0187 H         1 <0>         0.1455
     34 H5         -3.4402    3.3533    0.0551 H         1 <0>         0.1583
     35 H6         -3.3976    5.7887    0.0650 H         1 <0>         0.1633
     36 H7          2.9037    8.1245   -0.8752 H         1 <0>         0.1387
     37 H8          2.9213    8.1159    0.9047 H         1 <0>         0.1386
     38 H9          4.9710    9.6145    0.0016 H         1 <0>         0.4260
     39 H10        11.0975    7.3152    0.9198 H         1 <0>         0.0858
     40 H11        10.9000    6.8972   -0.8015 H         1 <0>         0.0841
     41 H12        12.8541    8.4828   -0.2593 H         1 <0>         0.0756
     42 H13        11.7211    9.0559   -1.5085 H         1 <0>         0.0697
     43 H14        11.4674    9.7705    1.4451 H         1 <0>         0.0688
     44 H15        12.3294   10.7862    0.2657 H         1 <0>         0.0719
     45 H16         9.9220   11.4677    0.6470 H         1 <0>         0.0749
     46 H17        10.3056   11.0842   -1.0496 H         1 <0>         0.0809
@<TRIPOS>BOND
     1    1    6 ar
     2    1    2 ar
     3    1   30 1
     4    2    3 ar
     5    2   31 1
     6    3    4 ar
     7    3   32 1
     8    4   10 1
     9    4    5 ar
    10    5    6 ar
    11    5    7 1
    12    6   33 1
    13    7    8 2
    14    7   34 1
    15    8    9 1
    16    8   35 1
    17    9   13 2
    18    9   10 1
    19   10   11 1
    20   11   12 2
    21   11   14 1
    22   12   13 1
    23   14   15 1
    24   15   16 1
    25   15   36 1
    26   15   37 1
    27   16   17 2
    28   16   18 am
    29   18   19 1
    30   18   38 1
    31   19   23 1
    32   19   20 2
    33   20   21 1
    34   20   28 1
    35   21   27 1
    36   21   22 2
    37   22   23 1
    38   22   24 1
    39   24   25 1
    40   24   39 1
    41   24   40 1
    42   25   26 1
    43   25   41 1
    44   25   42 1
    45   26   27 1
    46   26   43 1
    47   26   44 1
    48   27   45 1
    49   27   46 1
    50   28   29 3
@<TRIPOS>MOLECULE
ZINC13128782
   50    54     0     0     0
SMALL
USER_CHARGES
N-(1-isopropylpyrazolo[4,5-e]pyridin-5-yl)-2-pyrrol-1-yl-5,7-dihydro-4H-thieno[5,4-c]thiopyran-3-carboxamide
@<TRIPOS>ATOM
      1 C1         -5.1200   10.6094   -1.5059 C.3       1 <0>        -0.1618
      2 C2         -5.2520    9.0865   -1.4406 C.3       1 <0>         0.1634
      3 C3         -6.4774    8.6459   -2.2438 C.3       1 <0>        -0.1622
      4 N1         -4.0500    8.4676   -2.0048 N.pl3     1 <0>        -0.3837
      5 C4         -3.2002    7.6279   -1.3338 C.ar      1 <0>         0.3039
      6 C5         -2.1870    7.2708   -2.2457 C.ar      1 <0>        -0.2056
      7 C6         -1.1618    6.4130   -1.8307 C.ar      1 <0>         0.0007
      8 C7         -1.1965    5.9397   -0.5284 C.ar      1 <0>         0.0435
      9 C8         -2.2315    6.3379    0.3159 C.ar      1 <0>         0.1604
     10 N2         -3.1805    7.1488   -0.0965 N.ar      1 <0>        -0.4816
     11 N3         -0.1977    5.0740   -0.0635 N.am      1 <0>        -0.6564
     12 C9          0.3857    4.2021   -0.9096 C.2       1 <0>         0.5826
     13 O1         -0.0182    4.1009   -2.0532 O.2       1 <0>        -0.5051
     14 C10         1.5077    3.3748   -0.4520 C.2       1 <0>        -0.2107
     15 C11         1.2783    2.0588    0.1460 C.2       1 <0>        -0.0481
     16 C12         2.3956    1.4073    0.5113 C.2       1 <0>        -0.1737
     17 S1          3.7279    2.5064    0.0905 S.3       1 <0>         0.1807
     18 C13         2.8116    3.8151   -0.5736 C.2       1 <0>         0.0855
     19 N4          3.2743    5.0160   -1.1011 N.pl3     1 <0>        -0.3654
     20 C14         2.4948    6.0124   -1.6190 C.2       1 <0>        -0.0137
     21 C15         3.3036    7.0118   -2.0246 C.2       1 <0>        -0.1732
     22 C16         4.6309    6.6176   -1.7578 C.2       1 <0>        -0.1693
     23 C17         4.5846    5.3941   -1.1935 C.2       1 <0>        -0.0167
     24 C18         2.5631    0.0510    1.1393 C.3       1 <0>        -0.0061
     25 S2          0.9469   -0.4838    1.7836 S.3       1 <0>        -0.2218
     26 C19        -0.1738    0.0166    0.4393 C.3       1 <0>        -0.0836
     27 C20        -0.1397    1.5341    0.3134 C.3       1 <0>        -0.0659
     28 C21        -2.4959    7.9548   -3.4965 C.2       1 <0>         0.0828
     29 N5         -3.5879    8.6404   -3.3131 N.2       1 <0>        -0.2273
     30 H1         -5.0047   10.9199   -2.5444 H         1 <0>         0.0699
     31 H2         -6.0144   11.0699   -1.0862 H         1 <0>         0.0770
     32 H3         -4.2470   10.9233   -0.9337 H         1 <0>         0.0594
     33 H4         -5.3674    8.7760   -0.4022 H         1 <0>         0.1075
     34 H5         -6.5715    7.5610   -2.1973 H         1 <0>         0.0592
     35 H6         -7.3718    9.1064   -1.8241 H         1 <0>         0.0771
     36 H7         -6.3621    8.9565   -3.2823 H         1 <0>         0.0699
     37 H8         -0.3698    6.1252   -2.5061 H         1 <0>         0.1495
     38 H9         -2.2546    5.9718    1.3317 H         1 <0>         0.1691
     39 H10         0.0739    5.1022    0.8673 H         1 <0>         0.4164
     40 H11         1.4171    6.0019   -1.6887 H         1 <0>         0.1644
     41 H12         2.9922    7.9423   -2.4757 H         1 <0>         0.1498
     42 H13         5.5218    7.1911   -1.9670 H         1 <0>         0.1515
     43 H14         5.4358    4.8130   -0.8706 H         1 <0>         0.1717
     44 H15         3.2828    0.1105    1.9558 H         1 <0>         0.1257
     45 H16         2.9141   -0.6601    0.3914 H         1 <0>         0.1103
     46 H17        -1.1885   -0.3084    0.6693 H         1 <0>         0.1195
     47 H18         0.1537   -0.4354   -0.4969 H         1 <0>         0.0926
     48 H19        -0.7323    1.8316   -0.5516 H         1 <0>         0.0900
     49 H20        -0.5772    1.9743    1.2095 H         1 <0>         0.0957
     50 H21        -1.9226    7.9019   -4.4102 H         1 <0>         0.2023
@<TRIPOS>BOND
     1    1    2 1
     2    1   30 1
     3    1   31 1
     4    1   32 1
     5    2    3 1
     6    2    4 1
     7    2   33 1
     8    3   34 1
     9    3   35 1
    10    3   36 1
    11    4   29 1
    12    4    5 1
    13    5   10 ar
    14    5    6 ar
    15    6    7 ar
    16    6   28 1
    17    7    8 ar
    18    7   37 1
    19    8    9 ar
    20    8   11 1
    21    9   10 ar
    22    9   38 1
    23   11   12 am
    24   11   39 1
    25   12   13 2
    26   12   14 1
    27   14   18 2
    28   14   15 1
    29   15   27 1
    30   15   16 2
    31   16   17 1
    32   16   24 1
    33   17   18 1
    34   18   19 1
    35   19   23 1
    36   19   20 1
    37   20   21 2
    38   20   40 1
    39   21   22 1
    40   21   41 1
    41   22   23 2
    42   22   42 1
    43   23   43 1
    44   24   25 1
    45   24   44 1
    46   24   45 1
    47   25   26 1
    48   26   27 1
    49   26   46 1
    50   26   47 1
    51   27   48 1
    52   27   49 1
    53   28   29 2
    54   28   50 1
@<TRIPOS>MOLECULE
ZINC17097357
   45    48     0     0     0
SMALL
USER_CHARGES
(4S,7S)-4-(2-chloro-5-nitro-phenyl)-7-(2-chlorophenyl)-1,3,4,6,7,8-hexahydroquinoline-2,5-dione
@<TRIPOS>ATOM
      1 C1         -1.2374    3.1331    0.0293 C.ar      1 <0>        -0.1102
      2 C2         -1.2185    1.7506    0.0173 C.ar      1 <0>        -0.1038
      3 C3         -0.0126    1.0758    0.0080 C.ar      1 <0>        -0.1063
      4 C4          1.1762    1.7841    0.0004 C.ar      1 <0>        -0.0286
      5 C5          1.1566    3.1672    0.0075 C.ar      1 <0>        -0.0754
      6 C6         -0.0503    3.8410    0.0222 C.ar      1 <0>        -0.1018
      7 C7          2.4508    3.9393   -0.0002 C.3       1 <0>        -0.0475
      8 H1          3.2910    3.2450   -0.0048 H         1 <0>         0.1015
      9 C8          2.5116    4.8278   -1.2447 C.3       1 <0>        -0.0950
     10 C9          3.7840    5.6377   -1.2271 C.2       1 <0>         0.2313
     11 C10         4.3478    6.0147   -0.0602 C.2       1 <0>        -0.2802
     12 C11         5.6196    6.8295   -0.0671 C.3       1 <0>         0.0017
     13 H2          5.6864    7.4069    0.8549 H         1 <0>         0.1302
     14 C12         5.6072    7.7805   -1.2650 C.3       1 <0>        -0.1377
     15 C13         5.2283    7.0097   -2.5032 C.2       1 <0>         0.5169
     16 O1          5.7074    7.3129   -3.5749 O.2       1 <0>        -0.4900
     17 N1          4.3605    5.9862   -2.4220 N.am      1 <0>        -0.6614
     18 C14         6.8071    5.9073   -0.1697 C.ar      1 <0>        -0.0701
     19 C15         6.9372    5.0662   -1.2590 C.ar      1 <0>        -0.0514
     20 C16         8.0295    4.2248   -1.3563 C.ar      1 <0>        -0.0381
     21 C17         8.9863    4.2151   -0.3583 C.ar      1 <0>        -0.0426
     22 C18         8.8545    5.0514    0.7339 C.ar      1 <0>        -0.1047
     23 C19         7.7643    5.8983    0.8289 C.ar      1 <0>         0.0198
     24 Cl1         7.5983    6.9496    2.2003 Cl        1 <0>        -0.0177
     25 N2          8.1712    3.3289   -2.5258 N.pl3     1 <0>         0.0273
     26 O2          9.1307    2.5832   -2.6089 O.2       1 <0>        -0.1483
     27 O3          7.3285    3.3373   -3.4051 O.3       1 <0>        -0.1550
     28 C20         3.7787    5.6619    1.1748 C.2       1 <0>         0.4060
     29 O4          4.3073    6.0316    2.2043 O.2       1 <0>        -0.4527
     30 C21         2.5240    4.8330    1.2423 C.3       1 <0>        -0.1490
     31 Cl2         2.6914    0.9371   -0.0186 Cl        1 <0>        -0.0620
     32 H3         -2.1801    3.6599    0.0400 H         1 <0>         0.1320
     33 H4         -2.1464    1.1979    0.0187 H         1 <0>         0.1342
     34 H5          0.0021   -0.0041    0.0020 H         1 <0>         0.1360
     35 H6         -0.0657    4.9209    0.0278 H         1 <0>         0.1332
     36 H7          2.4913    4.2032   -2.1378 H         1 <0>         0.1005
     37 H8          1.6536    5.5001   -1.2530 H         1 <0>         0.1116
     38 H9          6.5982    8.2152   -1.3954 H         1 <0>         0.1183
     39 H10         4.8806    8.5747   -1.0936 H         1 <0>         0.1227
     40 H11         4.1383    5.4852   -3.2223 H         1 <0>         0.4206
     41 H12         6.1876    5.0699   -2.0365 H         1 <0>         0.1571
     42 H13         9.8371    3.5540   -0.4325 H         1 <0>         0.1658
     43 H14         9.6023    5.0442    1.5131 H         1 <0>         0.1626
     44 H15         1.7235    5.4317    1.2699 H         1 <0>         0.0970
     45 H16         2.5447    4.2120    2.1378 H         1 <0>         0.1032
@<TRIPOS>BOND
     1    1    6 ar
     2    1    2 ar
     3    1   32 1
     4    2    3 ar
     5    2   33 1
     6    3    4 ar
     7    3   34 1
     8    4    5 ar
     9    4   31 1
    10    5    6 ar
    11    5    7 1
    12    6   35 1
    13    7    8 1
    14    7   30 1
    15    7    9 1
    16    9   10 1
    17    9   36 1
    18    9   37 1
    19   10   17 1
    20   10   11 2
    21   11   12 1
    22   11   28 1
    23   12   13 1
    24   12   14 1
    25   12   18 1
    26   14   15 1
    27   14   38 1
    28   14   39 1
    29   15   16 2
    30   15   17 am
    31   17   40 1
    32   18   23 ar
    33   18   19 ar
    34   19   20 ar
    35   19   41 1
    36   20   21 ar
    37   20   25 1
    38   21   22 ar
    39   21   42 1
    40   22   23 ar
    41   22   43 1
    42   23   24 1
    43   25   26 2
    44   25   27 1
    45   28   29 2
    46   28   30 1
    47   30   44 1
    48   30   45 1
@<TRIPOS>MOLECULE
ZINC37640152
   55    59     0     0     0
SMALL
USER_CHARGES

@<TRIPOS>ATOM
      1 C1         -1.2637    1.1837    0.1810 C.3       1 <0>        -0.1165
      2 C2         -0.5835   -0.1576    0.0842 C.ar      1 <0>        -0.1091
      3 C3         -0.5684   -0.8401   -1.1167 C.ar      1 <0>        -0.1039
      4 C4          0.0554   -2.0707   -1.2063 C.ar      1 <0>        -0.1280
      5 C5          0.6665   -2.6221   -0.0949 C.ar      1 <0>        -0.1083
      6 C6          0.6553   -1.9447    1.1084 C.ar      1 <0>        -0.1155
      7 C7          0.0336   -0.7061    1.2006 C.ar      1 <0>         0.1415
      8 N1          0.0251   -0.0147    2.4170 N.am      1 <0>        -0.6664
      9 C8         -0.0564   -0.6944    3.5780 C.2       1 <0>         0.5076
     10 O1         -0.0401   -1.9072    3.5730 O.2       1 <0>        -0.5069
     11 C9         -0.1678    0.0524    4.8822 C.3       1 <0>         0.0931
     12 N2         -0.2414   -0.9052    5.9884 N.am      1 <0>        -0.5389
     13 C10        -1.4453   -1.3531    6.3884 C.2       1 <0>         0.5817
     14 O2         -2.4609   -0.9679    5.8386 O.2       1 <0>        -0.4974
     15 C11        -1.5181   -2.3200    7.5046 C.2       1 <0>        -0.2438
     16 C12        -2.7147   -2.9351    8.0990 C.2       1 <0>        -0.0476
     17 C13        -2.4671   -3.7826    9.1101 C.2       1 <0>        -0.2305
     18 S1         -0.7000   -3.7763    9.2777 S.3       1 <0>         0.2835
     19 C14        -0.3037   -2.6987    8.0662 C.2       1 <0>         0.0475
     20 N3          0.8819   -2.1925    7.5966 N.am      1 <0>        -0.4883
     21 C15         0.8951   -1.3174    6.5734 C.2       1 <0>         0.7146
     22 O3          1.9596   -0.8873    6.1729 O.2       1 <0>        -0.5193
     23 C16         2.1444   -2.6112    8.2105 C.3       1 <0>         0.1405
     24 C17         2.9154   -1.3787    8.7265 C.3       1 <0>        -0.1343
     25 C18         4.4006   -1.7124    8.4401 C.3       1 <0>        -0.1167
     26 C19         4.3306   -2.4370    7.0729 C.3       1 <0>        -0.1163
     27 C20         3.0441   -3.2841    7.1592 C.3       1 <0>        -0.1297
     28 C21        -3.7326   -4.3713    9.6731 C.3       1 <0>        -0.0281
     29 C22        -4.8566   -3.4475    9.1534 C.3       1 <0>        -0.1165
     30 C23        -4.2233   -2.8729    7.8698 C.3       1 <0>        -0.0620
     31 H1         -0.5481    1.9717   -0.0536 H         1 <0>         0.0724
     32 H2         -2.0921    1.2229   -0.5263 H         1 <0>         0.0728
     33 H3         -1.6428    1.3267    1.1929 H         1 <0>         0.0637
     34 H4         -1.0447   -0.4121   -1.9864 H         1 <0>         0.1268
     35 H5          0.0653   -2.6026   -2.1462 H         1 <0>         0.1242
     36 H6          1.1527   -3.5837   -0.1680 H         1 <0>         0.1250
     37 H7          1.1324   -2.3760    1.9760 H         1 <0>         0.1368
     38 H8          0.0778    0.9539    2.4248 H         1 <0>         0.4124
     39 H9          0.7065    0.6903    5.0114 H         1 <0>         0.1353
     40 H10        -1.0679    0.6670    4.8732 H         1 <0>         0.1347
     41 H11         1.9493   -3.3011    9.0316 H         1 <0>         0.1047
     42 H12         2.6135   -0.4842    8.1817 H         1 <0>         0.0869
     43 H13         2.7533   -1.2477    9.7964 H         1 <0>         0.0739
     44 H14         4.9936   -0.8011    8.3643 H         1 <0>         0.0735
     45 H15         4.8029   -2.3737    9.2076 H         1 <0>         0.0700
     46 H16         4.2572   -1.7135    6.2610 H         1 <0>         0.0785
     47 H17         5.2012   -3.0784    6.9361 H         1 <0>         0.0671
     48 H18         3.2864   -4.3003    7.4704 H         1 <0>         0.0774
     49 H19         2.5415   -3.2991    6.1921 H         1 <0>         0.0739
     50 H20        -3.8754   -5.3876    9.3057 H         1 <0>         0.0876
     51 H21        -3.7049   -4.3605   10.7627 H         1 <0>         0.0823
     52 H22        -5.7557   -4.0189    8.9227 H         1 <0>         0.0872
     53 H23        -5.0729   -2.6552    9.8700 H         1 <0>         0.0789
     54 H24        -4.5404   -1.8406    7.7219 H         1 <0>         0.0819
     55 H25        -4.4996   -3.4805    7.0081 H         1 <0>         0.0858
@<TRIPOS>BOND
     1    1    2 1
     2    1   31 1
     3    1   32 1
     4    1   33 1
     5    2    7 ar
     6    2    3 ar
     7    3    4 ar
     8    3   34 1
     9    4    5 ar
    10    4   35 1
    11    5    6 ar
    12    5   36 1
    13    6    7 ar
    14    6   37 1
    15    7    8 1
    16    8    9 am
    17    8   38 1
    18    9   10 2
    19    9   11 1
    20   11   12 1
    21   11   39 1
    22   11   40 1
    23   12   21 am
    24   12   13 am
    25   13   14 2
    26   13   15 1
    27   15   19 2
    28   15   16 1
    29   16   30 1
    30   16   17 2
    31   17   18 1
    32   17   28 1
    33   18   19 1
    34   19   20 1
    35   20   21 am
    36   20   23 1
    37   21   22 2
    38   23   27 1
    39   23   24 1
    40   23   41 1
    41   24   25 1
    42   24   42 1
    43   24   43 1
    44   25   26 1
    45   25   44 1
    46   25   45 1
    47   26   27 1
    48   26   46 1
    49   26   47 1
    50   27   48 1
    51   27   49 1
    52   28   29 1
    53   28   50 1
    54   28   51 1
    55   29   30 1
    56   29   52 1
    57   29   53 1
    58   30   54 1
    59   30   55 1
@<TRIPOS>MOLECULE
ZINC20739213
   39    42     0     0     0
SMALL
USER_CHARGES

@<TRIPOS>ATOM
      1 C1         -0.0166    1.3716    0.0096 C.ar      1 <0>        -0.1386
      2 C2          1.1788    2.0677    0.0019 C.ar      1 <0>        -0.0840
      3 C3          2.3651    1.3763   -0.0095 C.ar      1 <0>        -0.1610
      4 C4          2.3956   -0.0292   -0.0186 C.ar      1 <0>         0.1727
      5 C5          1.2015   -0.7173   -0.0153 C.ar      1 <0>        -0.1179
      6 C6          0.0021   -0.0041    0.0020 C.ar      1 <0>        -0.0871
      7 C7          1.0649   -2.2051   -0.0380 C.3       1 <0>        -0.0732
      8 C8          2.0885   -2.9407   -0.8454 C.3       1 <0>        -0.1053
      9 C9          3.4244   -3.0648   -0.1532 C.3       1 <0>        -0.1100
     10 H1          3.2628   -3.3950    0.8729 H         1 <0>         0.1408
     11 C10         4.1625   -1.7746   -0.1357 C.2       1 <0>         0.5301
     12 O1          5.3682   -1.8408   -0.2490 O.2       1 <0>        -0.5120
     13 N1          3.6561   -0.5806   -0.0124 N.am      1 <0>        -0.6372
     14 S1          4.4258   -4.3038   -1.0208 S.3       1 <0>         0.0971
     15 C11         5.8758   -4.4493   -0.0304 C.2       1 <0>         0.2310
     16 N2          6.1322   -3.7952    1.0820 N.2       1 <0>        -0.3007
     17 N3          7.2774   -4.1375    1.5515 N.2       1 <0>        -0.0231
     18 N4          7.8299   -5.0190    0.7906 N.2       1 <0>        -0.0712
     19 N5          6.9366   -5.2615   -0.2676 N.pl3     1 <0>        -0.3222
     20 C12         7.1066   -6.1497   -1.3394 C.ar      1 <0>         0.1432
     21 C13         6.0116   -6.8208   -1.8667 C.ar      1 <0>        -0.1113
     22 C14         6.1816   -7.6947   -2.9226 C.ar      1 <0>        -0.0644
     23 C15         7.4419   -7.9018   -3.4547 C.ar      1 <0>        -0.0831
     24 C16         8.5349   -7.2345   -2.9307 C.ar      1 <0>        -0.0688
     25 C17         8.3693   -6.3549   -1.8788 C.ar      1 <0>        -0.0882
     26 Br1         7.6711   -9.0995   -4.9000 Br        1 <0>        -0.0291
     27 H2         -0.9564    1.9034    0.0259 H         1 <0>         0.1289
     28 H3          1.1790    3.1477    0.0045 H         1 <0>         0.1309
     29 H4          3.2956    1.9245   -0.0119 H         1 <0>         0.1276
     30 H5         -0.9330   -0.5444    0.0101 H         1 <0>         0.1284
     31 H6          1.1158   -2.5676    0.9887 H         1 <0>         0.0808
     32 H7          0.0788   -2.4508   -0.4323 H         1 <0>         0.0941
     33 H8          1.7117   -3.9409   -1.0592 H         1 <0>         0.0990
     34 H9          2.2319   -2.4153   -1.7896 H         1 <0>         0.0826
     35 H10         4.3435    0.0915    0.1163 H         1 <0>         0.4039
     36 H11         5.0278   -6.6600   -1.4512 H         1 <0>         0.1469
     37 H12         5.3301   -8.2170   -3.3331 H         1 <0>         0.1516
     38 H13         9.5177   -7.3982   -3.3475 H         1 <0>         0.1503
     39 H14         9.2220   -5.8309   -1.4731 H         1 <0>         0.1484
@<TRIPOS>BOND
     1    1    6 ar
     2    1    2 ar
     3    1   27 1
     4    2    3 ar
     5    2   28 1
     6    3    4 ar
     7    3   29 1
     8    4   13 1
     9    4    5 ar
    10    5    6 ar
    11    5    7 1
    12    6   30 1
    13    7    8 1
    14    7   31 1
    15    7   32 1
    16    8    9 1
    17    8   33 1
    18    8   34 1
    19    9   10 1
    20    9   11 1
    21    9   14 1
    22   11   12 2
    23   11   13 am
    24   13   35 1
    25   14   15 1
    26   15   19 1
    27   15   16 2
    28   16   17 1
    29   17   18 2
    30   18   19 1
    31   19   20 1
    32   20   25 ar
    33   20   21 ar
    34   21   22 ar
    35   21   36 1
    36   22   23 ar
    37   22   37 1
    38   23   24 ar
    39   23   26 1
    40   24   25 ar
    41   24   38 1
    42   25   39 1
@<TRIPOS>MOLECULE
ZINC64411408
   57    61     0     0     0
SMALL
USER_CHARGES

@<TRIPOS>ATOM
      1 C1          0.3910   -2.8628    2.2211 C.3       1 <0>        -0.1825
      2 C2         -0.1964   -1.4532    2.1272 C.3       1 <0>         0.3931
      3 H1         -0.3907   -1.0598    3.1250 H         1 <0>         0.0630
      4 N1         -1.4352   -1.4720    1.3400 N.pl3     1 <0>        -0.7547
      5 C3         -1.2350   -0.6439    0.2269 C.ar      1 <0>         0.1247
      6 C4         -2.0875   -0.3201   -0.8220 C.ar      1 <0>        -0.1399
      7 C5         -1.6631    0.5319   -1.8233 C.ar      1 <0>        -0.1230
      8 C6         -0.3884    1.0660   -1.7863 C.ar      1 <0>        -0.1244
      9 C7          0.4661    0.7499   -0.7477 C.ar      1 <0>        -0.1363
     10 C8          0.0483   -0.1067    0.2639 C.ar      1 <0>         0.1263
     11 N2          0.7242   -0.5678    1.4040 N.pl3     1 <0>        -0.6385
     12 C9          2.0936   -0.2294    1.7998 C.3       1 <0>         0.1619
     13 C10         2.0644    0.9318    2.7956 C.3       1 <0>        -0.1087
     14 C11         1.5324    2.1868    2.0999 C.3       1 <0>        -0.1251
     15 C12         1.4720    3.3382    3.1086 C.3       1 <0>         0.1145
     16 N3          2.7986    3.5028    3.7183 N.am      1 <0>        -0.6048
     17 C13         3.4419    2.3351    4.3359 C.3       1 <0>         0.1027
     18 C14         3.4803    1.1950    3.3135 C.3       1 <0>        -0.1310
     19 C15         3.4138    4.7019    3.7109 C.2       1 <0>         0.5573
     20 O1          2.8724    5.6581    3.1975 O.2       1 <0>        -0.5076
     21 C16         4.7744    4.8546    4.3405 C.3       1 <0>        -0.0639
     22 H2          5.4022    3.9938    4.1106 H         1 <0>         0.1733
     23 C17         4.6522    5.0433    5.8421 C.2       1 <0>        -0.1462
     24 C18         5.1865    6.2607    6.0589 C.2       1 <0>         0.0238
     25 N4          5.6048    6.8103    4.8886 N.2       1 <0>        -0.1489
     26 N5          5.4173    6.1012    3.8930 N.2       1 <0>        -0.1119
     27 C19         5.3015    6.9102    7.3878 C.ar      1 <0>        -0.0461
     28 C20         4.8437    6.2535    8.5286 C.ar      1 <0>        -0.0704
     29 C21         4.9531    6.8610    9.7625 C.ar      1 <0>        -0.1536
     30 C22         5.5168    8.1223    9.8685 C.ar      1 <0>         0.1128
     31 C23         5.9729    8.7790    8.7369 C.ar      1 <0>        -0.1531
     32 C24         5.8731    8.1764    7.4998 C.ar      1 <0>        -0.0545
     33 F1          5.6216    8.7137   11.0786 F         1 <0>        -0.1345
     34 H3          1.2903   -2.8414    2.8367 H         1 <0>         0.0656
     35 H4         -0.3417   -3.5325    2.6714 H         1 <0>         0.0666
     36 H5          0.6429   -3.2187    1.2221 H         1 <0>         0.0634
     37 H6         -2.2426   -1.9664    1.5509 H         1 <0>         0.4226
     38 H7         -3.0841   -0.7351   -0.8541 H         1 <0>         0.1168
     39 H8         -2.3285    0.7815   -2.6366 H         1 <0>         0.1211
     40 H9         -0.0602    1.7319   -2.5706 H         1 <0>         0.1209
     41 H10         1.4612    1.1690   -0.7221 H         1 <0>         0.1150
     42 H11         2.5617   -1.0963    2.2661 H         1 <0>         0.0759
     43 H12         2.6650    0.0620    0.9185 H         1 <0>         0.0787
     44 H13         1.4134    0.6768    3.6318 H         1 <0>         0.0761
     45 H14         2.1965    2.4569    1.2788 H         1 <0>         0.0681
     46 H15         0.5331    1.9912    1.7108 H         1 <0>         0.0839
     47 H16         1.1885    4.2579    2.5968 H         1 <0>         0.0956
     48 H17         0.7400    3.1078    3.8827 H         1 <0>         0.0702
     49 H18         4.4582    2.5930    4.6340 H         1 <0>         0.0845
     50 H19         2.8706    2.0229    5.2101 H         1 <0>         0.0780
     51 H20         3.8674    0.2934    3.7883 H         1 <0>         0.0825
     52 H21         4.1261    1.4744    2.4811 H         1 <0>         0.0735
     53 H22         4.2344    4.3607    6.5673 H         1 <0>         0.1799
     54 H23         4.4035    5.2707    8.4469 H         1 <0>         0.1346
     55 H24         4.5985    6.3529   10.6471 H         1 <0>         0.1423
     56 H25         6.4113    9.7622    8.8240 H         1 <0>         0.1435
     57 H26         6.2330    8.6871    6.6188 H         1 <0>         0.1468
@<TRIPOS>BOND
     1    1    2 1
     2    1   34 1
     3    1   35 1
     4    1   36 1
     5    2    3 1
     6    2   11 1
     7    2    4 1
     8    4    5 1
     9    4   37 1
    10    5   10 ar
    11    5    6 ar
    12    6    7 ar
    13    6   38 1
    14    7    8 ar
    15    7   39 1
    16    8    9 ar
    17    8   40 1
    18    9   10 ar
    19    9   41 1
    20   10   11 1
    21   11   12 1
    22   12   13 1
    23   12   42 1
    24   12   43 1
    25   13   18 1
    26   13   14 1
    27   13   44 1
    28   14   15 1
    29   14   45 1
    30   14   46 1
    31   15   16 1
    32   15   47 1
    33   15   48 1
    34   16   17 1
    35   16   19 am
    36   17   18 1
    37   17   49 1
    38   17   50 1
    39   18   51 1
    40   18   52 1
    41   19   20 2
    42   19   21 1
    43   21   22 1
    44   21   26 1
    45   21   23 1
    46   23   24 2
    47   23   53 1
    48   24   25 1
    49   24   27 1
    50   25   26 2
    51   27   32 ar
    52   27   28 ar
    53   28   29 ar
    54   28   54 1
    55   29   30 ar
    56   29   55 1
    57   30   31 ar
    58   30   33 1
    59   31   32 ar
    60   31   56 1
    61   32   57 1
@<TRIPOS>MOLECULE
ZINC26456142
   45    50     0     0     0
SMALL
USER_CHARGES
2-furylBLAH
@<TRIPOS>ATOM
      1 C1          0.6174    4.0495    0.0078 C.ar      1 <0>        -0.1513
      2 C2         -0.7025    3.6293   -0.0017 C.ar      1 <0>        -0.1021
      3 C3         -1.0521    2.2899   -0.0153 C.ar      1 <0>        -0.1306
      4 C4         -0.0089    1.3665   -0.0182 C.ar      1 <0>         0.0934
      5 C5          1.3397    1.8025   -0.0313 C.ar      1 <0>        -0.1019
      6 C6          1.6651    3.1625   -0.0102 C.ar      1 <0>        -0.0675
      7 C7          2.1446    0.6014   -0.0700 C.2       1 <0>        -0.1589
      8 C8          1.2938   -0.4570   -0.0598 C.2       1 <0>         0.0976
      9 N1          0.0074   -0.0014   -0.0175 N.pl3     1 <0>        -0.5870
     10 H1         -0.9381   -0.5627    0.0144 H         1 <0>         0.4350
     11 C9          1.7971   -1.8785   -0.0972 C.3       1 <0>         0.2184
     12 H2          1.7517   -2.2743   -1.1225 H         1 <0>         0.0627
     13 C10         0.9592   -2.8105    0.7217 C.ar      1 <0>        -0.1567
     14 C11        -0.4174   -2.8221    0.5843 C.ar      1 <0>        -0.0789
     15 C12        -1.1974   -3.6386    1.3814 C.ar      1 <0>        -0.1685
     16 C13        -0.6084   -4.4767    2.3096 C.ar      1 <0>        -0.0711
     17 C14         0.7678   -4.5310    2.4038 C.ar      1 <0>        -0.1823
     18 C15         1.5500   -3.7159    1.5976 C.ar      1 <0>         0.2347
     19 N2          2.9448   -3.7996    1.6730 N.pl3     1 <0>        -0.7453
     20 C16         3.7230   -3.2044    0.5637 C.3       1 <0>         0.4252
     21 H3          3.6153   -3.7560   -0.3819 H         1 <0>         0.0761
     22 N3          3.1966   -1.8595    0.3638 N.3       1 <0>        -0.5655
     23 C17         3.9950   -0.9771   -0.4858 C.3       1 <0>         0.0751
     24 C18         3.6466    0.4785   -0.1187 C.3       1 <0>        -0.0365
     25 C19         5.1765   -3.1915    0.9616 C.2       1 <0>        -0.0285
     26 C20         6.1709   -3.8403    0.3295 C.2       1 <0>        -0.1822
     27 C21         7.3619   -3.5509    1.0344 C.2       1 <0>        -0.2171
     28 C22         7.0227   -2.7493    2.0599 C.2       1 <0>        -0.0248
     29 O1          5.6978   -2.5349    2.0109 O.3       1 <0>        -0.1559
     30 H4          0.8295    5.1082    0.0288 H         1 <0>         0.1164
     31 H5         -1.4860    4.3727    0.0047 H         1 <0>         0.1192
     32 H6         -2.0855    1.9767   -0.0260 H         1 <0>         0.1261
     33 H7          2.6915    3.4981   -0.0063 H         1 <0>         0.1265
     34 H8         -0.8917   -2.2065   -0.1641 H         1 <0>         0.1115
     35 H9         -2.2735   -3.6109    1.2885 H         1 <0>         0.1221
     36 H10        -1.2204   -5.0929    2.9503 H         1 <0>         0.1245
     37 H11         1.2349   -5.2077    3.1043 H         1 <0>         0.1237
     38 H12         3.4655   -4.2832    2.5126 H         1 <0>         0.4328
     39 H13         5.0640   -1.1681   -0.3106 H         1 <0>         0.0830
     40 H14         3.7563   -1.1705   -1.5420 H         1 <0>         0.0464
     41 H15         4.0464    1.1672   -0.8775 H         1 <0>         0.0769
     42 H16         4.0674    0.7327    0.8653 H         1 <0>         0.0780
     43 H17         6.0779   -4.4611   -0.5493 H         1 <0>         0.1502
     44 H18         8.3530   -3.9085    0.7975 H         1 <0>         0.1519
     45 H19         7.7008   -2.3467    2.7979 H         1 <0>         0.2055
@<TRIPOS>BOND
     1    1    6 ar
     2    1    2 ar
     3    1   30 1
     4    2    3 ar
     5    2   31 1
     6    3    4 ar
     7    3   32 1
     8    4    9 1
     9    4    5 ar
    10    5    6 ar
    11    5    7 1
    12    6   33 1
    13    7   24 1
    14    7    8 2
    15    8    9 1
    16    8   11 1
    17    9   10 1
    18   11   12 1
    19   11   22 1
    20   11   13 1
    21   13   18 ar
    22   13   14 ar
    23   14   15 ar
    24   14   34 1
    25   15   16 ar
    26   15   35 1
    27   16   17 ar
    28   16   36 1
    29   17   18 ar
    30   17   37 1
    31   18   19 1
    32   19   20 1
    33   19   38 1
    34   20   21 1
    35   20   22 1
    36   20   25 1
    37   22   23 1
    38   23   24 1
    39   23   39 1
    40   23   40 1
    41   24   41 1
    42   24   42 1
    43   25   29 1
    44   25   26 2
    45   26   27 1
    46   26   43 1
    47   27   28 2
    48   27   44 1
    49   28   29 1
    50   28   45 1
@<TRIPOS>MOLECULE
ZINC37315299
   32    34     0     0     0
SMALL
USER_CHARGES

@<TRIPOS>ATOM
      1 C1         -0.0168    1.3845    0.0097 C.ar      1 <0>        -0.1682
      2 C2          1.1694    2.0914    0.0021 C.ar      1 <0>        -0.0981
      3 C3          2.3810    1.4138   -0.0129 C.ar      1 <0>         0.1005
      4 C4          2.3997    0.0250   -0.0202 C.ar      1 <0>        -0.0713
      5 C5          1.2146   -0.6820   -0.0133 C.ar      1 <0>        -0.1557
      6 C6          0.0021   -0.0041    0.0020 C.ar      1 <0>         0.2003
      7 N1         -1.1997   -0.7200    0.0097 N.pl3     1 <0>        -0.7469
      8 C7         -2.4782   -0.0050    0.0259 C.3       1 <0>         0.2088
      9 C8         -3.6101   -0.9999    0.0314 C.2       1 <0>        -0.0155
     10 C9         -4.1939   -1.5209    1.1254 C.2       1 <0>        -0.1803
     11 C10        -5.2013   -2.4031    0.6716 C.2       1 <0>        -0.1560
     12 C11        -5.1728   -2.3683   -0.6735 C.2       1 <0>        -0.0358
     13 O1         -4.2109   -1.5123   -1.0554 O.3       1 <0>        -0.1524
     14 I1         -6.4224   -3.4580   -1.9542 I         1 <0>         0.0782
     15 C12         3.7167   -0.7068   -0.0353 C.3       1 <0>        -0.0794
     16 C13         4.7371    0.0934   -0.8455 C.3       1 <0>        -0.1381
     17 C14         4.7298    1.5314   -0.4020 C.2       1 <0>         0.5193
     18 O2          5.7672    2.1599   -0.3889 O.2       1 <0>        -0.5328
     19 N2          3.5858    2.1283   -0.0202 N.am      1 <0>        -0.6612
     20 H1         -0.9593    1.9115    0.0260 H         1 <0>         0.1276
     21 H2          1.1546    3.1713    0.0076 H         1 <0>         0.1292
     22 H3          1.2297   -1.7619   -0.0194 H         1 <0>         0.1284
     23 H4         -1.1864   -1.6899    0.0044 H         1 <0>         0.4036
     24 H5         -2.5359    0.6160    0.9198 H         1 <0>         0.0958
     25 H6         -2.5531    0.6256   -0.8601 H         1 <0>         0.0806
     26 H7         -3.9415   -1.3066    2.1534 H         1 <0>         0.1602
     27 H8         -5.8661   -2.9918    1.2863 H         1 <0>         0.1602
     28 H9          4.0774   -0.8262    0.9863 H         1 <0>         0.0852
     29 H10         3.5815   -1.6883   -0.4896 H         1 <0>         0.0919
     30 H11         5.7309   -0.3276   -0.6928 H         1 <0>         0.1091
     31 H12         4.4814    0.0396   -1.9037 H         1 <0>         0.1035
     32 H13         3.5956    3.0593    0.2517 H         1 <0>         0.4094
@<TRIPOS>BOND
     1    1    6 ar
     2    1    2 ar
     3    1   20 1
     4    2    3 ar
     5    2   21 1
     6    3   19 1
     7    3    4 ar
     8    4    5 ar
     9    4   15 1
    10    5    6 ar
    11    5   22 1
    12    6    7 1
    13    7    8 1
    14    7   23 1
    15    8    9 1
    16    8   24 1
    17    8   25 1
    18    9   13 1
    19    9   10 2
    20   10   11 1
    21   10   26 1
    22   11   12 2
    23   11   27 1
    24   12   13 1
    25   12   14 1
    26   15   16 1
    27   15   28 1
    28   15   29 1
    29   16   17 1
    30   16   30 1
    31   16   31 1
    32   17   18 2
    33   17   19 am
    34   19   32 1
@<TRIPOS>MOLECULE
ZINC45599419
   41    44     0     0     0
SMALL
USER_CHARGES

@<TRIPOS>ATOM
      1 C1          0.3070    0.0392   -2.2614 C.3       1 <0>        -0.0811
      2 C2          0.1876   -1.3972   -1.8214 C.2       1 <0>         0.0761
      3 C3         -0.0095   -2.3964   -2.7146 C.2       1 <0>        -0.2291
      4 S1         -0.0641   -3.8108   -1.6265 S.3       1 <0>         0.1091
      5 C4          0.1658   -2.9953   -0.1724 C.2       1 <0>         0.0186
      6 N1          0.2760   -1.7381   -0.5481 N.2       1 <0>        -0.4934
      7 S2          0.2464   -3.6626    1.4564 S.3       1 <0>         0.0742
      8 C5          0.0240   -5.4462    1.2115 C.3       1 <0>        -0.0626
      9 C6          0.0728   -6.1462    2.5452 C.ar      1 <0>         0.3932
     10 N2          1.2347   -6.5688    3.0109 N.ar      1 <0>        -0.5710
     11 C7          1.3442   -7.1890    4.1746 C.ar      1 <0>         0.4931
     12 C8          0.1746   -7.4101    4.9538 C.ar      1 <0>        -0.2330
     13 C9          0.0519   -8.0648    6.2574 C.2       1 <0>        -0.0839
     14 C10        -1.1856   -8.1469    6.7865 C.2       1 <0>        -0.1424
     15 S3         -2.2488   -7.3696    5.5996 S.3       1 <0>         0.1258
     16 C11        -1.0260   -6.9325    4.3915 C.ar      1 <0>         0.1447
     17 N3         -1.0447   -6.3188    3.2242 N.ar      1 <0>        -0.4977
     18 C12        -1.5738   -8.7625    8.0964 C.3       1 <0>        -0.0372
     19 C13        -0.3024   -8.9628    8.9334 C.3       1 <0>        -0.0867
     20 H1          0.0611   -7.9966    9.2833 H         1 <0>         0.0782
     21 C14         0.7633   -9.6256    8.0556 C.3       1 <0>        -0.1153
     22 C15         1.2569   -8.6347    7.0009 C.3       1 <0>        -0.0726
     23 C16        -0.6139   -9.8593   10.1336 C.3       1 <0>        -0.1482
     24 N4          2.5792   -7.6169    4.6272 N.pl3     1 <0>        -0.8300
     25 H2          1.3520    0.2700   -2.4686 H         1 <0>         0.0774
     26 H3         -0.2849    0.1932   -3.1637 H         1 <0>         0.0777
     27 H4         -0.0596    0.6932   -1.4703 H         1 <0>         0.0767
     28 H5         -0.1071   -2.3502   -3.7892 H         1 <0>         0.1997
     29 H6         -0.9410   -5.6305    0.7395 H         1 <0>         0.1260
     30 H7          0.8201   -5.8271    0.5719 H         1 <0>         0.1256
     31 H8         -2.2602   -8.1003    8.6241 H         1 <0>         0.0875
     32 H9         -2.0537   -9.7255    7.9215 H         1 <0>         0.0898
     33 H10         1.6013   -9.9394    8.6780 H         1 <0>         0.0750
     34 H11         0.3345  -10.4973    7.5613 H         1 <0>         0.0699
     35 H12         1.9115   -9.1477    6.2963 H         1 <0>         0.0797
     36 H13         1.8025   -7.8257    7.4864 H         1 <0>         0.0823
     37 H14        -0.9717  -10.8267    9.7813 H         1 <0>         0.0582
     38 H15         0.2900  -10.0000   10.7262 H         1 <0>         0.0602
     39 H16        -1.3819   -9.3896   10.7482 H         1 <0>         0.0596
     40 H17         2.6974   -7.8575    5.5594 H         1 <0>         0.4149
     41 H18         3.3271   -7.6764    4.0123 H         1 <0>         0.4111
@<TRIPOS>BOND
     1    1    2 1
     2    1   25 1
     3    1   26 1
     4    1   27 1
     5    2    6 1
     6    2    3 2
     7    3    4 1
     8    3   28 1
     9    4    5 1
    10    5    6 2
    11    5    7 1
    12    7    8 1
    13    8    9 1
    14    8   29 1
    15    8   30 1
    16    9   17 ar
    17    9   10 ar
    18   10   11 ar
    19   11   12 ar
    20   11   24 1
    21   12   16 ar
    22   12   13 1
    23   13   22 1
    24   13   14 2
    25   14   15 1
    26   14   18 1
    27   15   16 1
    28   16   17 ar
    29   18   19 1
    30   18   31 1
    31   18   32 1
    32   19   20 1
    33   19   21 1
    34   19   23 1
    35   21   22 1
    36   21   33 1
    37   21   34 1
    38   22   35 1
    39   22   36 1
    40   23   37 1
    41   23   38 1
    42   23   39 1
    43   24   40 1
    44   24   41 1
@<TRIPOS>MOLECULE
ZINC52591983
   45    47     0     0     0
SMALL
USER_CHARGES

@<TRIPOS>ATOM
      1 C1          0.8226   -0.7584   -1.3164 C.ar      1 <0>        -0.1042
      2 C2          2.0996   -0.2885   -1.5592 C.ar      1 <0>        -0.0854
      3 C3          2.6494    0.6768   -0.7351 C.ar      1 <0>        -0.0933
      4 C4          1.9209    1.1715    0.3317 C.ar      1 <0>        -0.0863
      5 C5          0.6440    0.7010    0.5737 C.ar      1 <0>        -0.1170
      6 C6          0.0949   -0.2637   -0.2502 C.ar      1 <0>        -0.0501
      7 C7         -1.2974   -0.7764    0.0141 C.3       1 <0>        -0.0636
      8 C8         -1.7140   -0.6937    1.4921 C.3       1 <0>        -0.1307
      9 C9         -2.3769   -2.0681    1.3006 C.3       1 <0>        -0.1416
     10 C10        -1.3735   -2.3054    0.1596 C.3       1 <0>        -0.1190
     11 C11        -2.3357   -0.2000   -0.9505 C.3       1 <0>         0.1668
     12 N1         -2.3820    1.2569   -0.8047 N.am      1 <0>        -0.7416
     13 C12        -3.2974    1.9737   -1.4865 C.2       1 <0>         0.7096
     14 O1         -4.0250    1.4231   -2.2901 O.2       1 <0>        -0.5870
     15 N2         -3.4063    3.3007   -1.2775 N.am      1 <0>        -0.6254
     16 C13        -2.4573    4.0008   -0.4011 C.3       1 <0>         0.1091
     17 C14        -1.8521    5.1789   -1.1709 C.3       1 <0>        -0.1328
     18 C15        -2.9787    6.0628   -1.7109 C.3       1 <0>        -0.1140
     19 C16        -3.8484    5.2520   -2.6744 C.3       1 <0>         0.0914
     20 H1         -3.2326    4.8749   -3.4908 H         1 <0>         0.0592
     21 C17        -4.4725    4.0757   -1.9264 C.3       1 <0>         0.0984
     22 O2         -4.8813    6.0867   -3.2022 O.3       1 <0>        -0.5617
     23 Br1         4.3967    1.3197   -1.0663 Br        1 <0>        -0.0494
     24 H2          0.3916   -1.5089   -1.9624 H         1 <0>         0.1318
     25 H3          2.6682   -0.6753   -2.3919 H         1 <0>         0.1334
     26 H4          2.3499    1.9250    0.9756 H         1 <0>         0.1335
     27 H5          0.0751    1.0872    1.4066 H         1 <0>         0.1310
     28 H6         -0.8723   -0.7076    2.1845 H         1 <0>         0.0887
     29 H7         -2.4227    0.1074    1.7018 H         1 <0>         0.0723
     30 H8         -2.2414   -2.7401    2.1480 H         1 <0>         0.0734
     31 H9         -3.4127   -2.0105    0.9662 H         1 <0>         0.0844
     32 H10        -1.8073   -2.8053   -0.7064 H         1 <0>         0.0761
     33 H11        -0.4387   -2.7599    0.4877 H         1 <0>         0.0900
     34 H12        -2.0611   -0.4542   -1.9743 H         1 <0>         0.0704
     35 H13        -3.3157   -0.6193   -0.7224 H         1 <0>         0.0777
     36 H14        -1.7538    1.7058   -0.2175 H         1 <0>         0.3957
     37 H15        -2.9793    4.3705    0.4815 H         1 <0>         0.0744
     38 H16        -1.6649    3.3158   -0.0993 H         1 <0>         0.0771
     39 H17        -1.2195    5.7634   -0.5030 H         1 <0>         0.0859
     40 H18        -1.2551    4.8025   -2.0015 H         1 <0>         0.0704
     41 H19        -3.5902    6.4188   -0.8817 H         1 <0>         0.0737
     42 H20        -2.5504    6.9153   -2.2382 H         1 <0>         0.0755
     43 H21        -5.0093    3.4402   -2.6307 H         1 <0>         0.0963
     44 H22        -5.1625    4.4517   -1.1710 H         1 <0>         0.0741
     45 H23        -5.4720    5.6372   -3.8219 H         1 <0>         0.3826
@<TRIPOS>BOND
     1    1    6 ar
     2    1    2 ar
     3    1   24 1
     4    2    3 ar
     5    2   25 1
     6    3    4 ar
     7    3   23 1
     8    4    5 ar
     9    4   26 1
    10    5    6 ar
    11    5   27 1
    12    6    7 1
    13    7   10 1
    14    7    8 1
    15    7   11 1
    16    8    9 1
    17    8   28 1
    18    8   29 1
    19    9   10 1
    20    9   30 1
    21    9   31 1
    22   10   32 1
    23   10   33 1
    24   11   12 1
    25   11   34 1
    26   11   35 1
    27   12   13 am
    28   12   36 1
    29   13   14 2
    30   13   15 am
    31   15   21 1
    32   15   16 1
    33   16   17 1
    34   16   37 1
    35   16   38 1
    36   17   18 1
    37   17   39 1
    38   17   40 1
    39   18   19 1
    40   18   41 1
    41   18   42 1
    42   19   20 1
    43   19   21 1
    44   19   22 1
    45   21   43 1
    46   21   44 1
    47   22   45 1
@<TRIPOS>MOLECULE
ZINC13756788
   32    34     0     0     0
SMALL
USER_CHARGES

@<TRIPOS>ATOM
      1 C1         -0.0167    1.3772    0.0096 C.ar      1 <0>        -0.0446
      2 C2          1.1758    2.0879    0.0020 C.ar      1 <0>         0.0628
      3 C3          2.3877    1.4112   -0.0131 C.ar      1 <0>        -0.0443
      4 C4          2.4079    0.0299   -0.0207 C.ar      1 <0>        -0.1534
      5 C5          1.2148   -0.6820   -0.0131 C.ar      1 <0>         0.2715
      6 C6          0.0021   -0.0041    0.0020 C.ar      1 <0>        -0.1534
      7 Br1        -1.6224   -0.9720    0.0129 Br        1 <0>        -0.0257
      8 N1          1.2345   -2.0812   -0.0212 N.pl3     1 <0>        -0.8563
      9 Br2         4.0590   -0.8917   -0.0420 Br        1 <0>        -0.0257
     10 N2          1.1560    3.4914    0.0093 N.am      1 <0>        -0.5213
     11 C7          0.0171    4.2103    0.0292 C.2       1 <0>         0.5237
     12 O1         -1.0978    3.7856    0.2443 O.2       1 <0>        -0.4547
     13 C8          0.3950    5.6704   -0.2712 C.3       1 <0>        -0.0969
     14 H1         -0.2417    6.4000    0.2292 H         1 <0>         0.1427
     15 C9          0.3521    5.7797   -1.7974 C.3       1 <0>        -0.0860
     16 C10         1.3805    6.7032   -2.3525 C.2       1 <0>        -0.1561
     17 C11         2.4283    7.1098   -1.7164 C.2       1 <0>        -0.1456
     18 C12         2.7239    6.7375   -0.2979 C.3       1 <0>        -0.0761
     19 C13         1.8394    5.6582    0.2549 C.3       1 <0>        -0.1210
     20 H2          1.7854    5.7737    1.3374 H         1 <0>         0.1233
     21 C14         2.2783    4.2450    0.0026 C.2       1 <0>         0.5391
     22 O2          3.4134    3.8575   -0.1743 O.2       1 <0>        -0.4513
     23 H3         -0.9592    1.9043    0.0259 H         1 <0>         0.1706
     24 H4          3.3151    1.9647   -0.0194 H         1 <0>         0.1708
     25 H5          2.0812   -2.5543   -0.0321 H         1 <0>         0.4073
     26 H6          0.4014   -2.5780   -0.0159 H         1 <0>         0.4073
     27 H7          0.5062    4.7882   -2.2233 H         1 <0>         0.0760
     28 H8         -0.6343    6.1355   -2.0949 H         1 <0>         0.0946
     29 H9          1.2396    7.0590   -3.3624 H         1 <0>         0.1143
     30 H10         3.1264    7.7505   -2.2346 H         1 <0>         0.1189
     31 H11         3.7617    6.4107   -0.2325 H         1 <0>         0.0948
     32 H12         2.6002    7.6217    0.3274 H         1 <0>         0.0946
@<TRIPOS>BOND
     1    1    6 ar
     2    1    2 ar
     3    1   23 1
     4    2    3 ar
     5    2   10 1
     6    3    4 ar
     7    3   24 1
     8    4    5 ar
     9    4    9 1
    10    5    6 ar
    11    5    8 1
    12    6    7 1
    13    8   25 1
    14    8   26 1
    15   10   21 am
    16   10   11 am
    17   11   12 2
    18   11   13 1
    19   13   14 1
    20   13   19 1
    21   13   15 1
    22   15   16 1
    23   15   27 1
    24   15   28 1
    25   16   17 2
    26   16   29 1
    27   17   18 1
    28   17   30 1
    29   18   19 1
    30   18   31 1
    31   18   32 1
    32   19   20 1
    33   19   21 1
    34   21   22 2
@<TRIPOS>MOLECULE
ZINC18196464
   43    47     0     0     0
SMALL
USER_CHARGES
(4R,7S)-3-hydroxy-4-phenyl-7-(2-thienyl)-1,4,6,7,8,9-hexahydropyrazolo[5,4-b]quinolin-5-one
@<TRIPOS>ATOM
      1 C1          9.2969    3.9852    1.0768 C.ar      1 <0>        -0.1249
      2 C2          9.2698    2.8473    1.8612 C.ar      1 <0>        -0.1209
      3 C3          8.4707    1.7784    1.5009 C.ar      1 <0>        -0.0943
      4 C4          7.6985    1.8476    0.3564 C.ar      1 <0>        -0.0600
      5 C5          7.7297    2.9835   -0.4308 C.ar      1 <0>        -0.1079
      6 C6          8.5254    4.0541   -0.0681 C.ar      1 <0>        -0.1260
      7 C7          6.8274    0.6823   -0.0363 C.3       1 <0>         0.1091
      8 H1          6.9368   -0.1157    0.6981 H         1 <0>         0.0901
      9 C8          7.2460    0.1784   -1.3883 C.2       1 <0>        -0.2665
     10 C9          6.5042    0.4042   -2.5176 C.2       1 <0>         0.3414
     11 N1          7.1481   -0.1662   -3.5533 N.pl3     1 <0>        -0.4667
     12 H2          6.8480   -0.1646   -4.5072 H         1 <0>         0.4501
     13 N2          8.3167   -0.7638   -3.0540 N.2       1 <0>        -0.3387
     14 C10         8.3703   -0.5542   -1.7568 C.2       1 <0>         0.3073
     15 O1          9.3545   -0.9795   -0.9202 O.3       1 <0>        -0.4298
     16 N3          5.3099    1.1131   -2.4695 N.pl3     1 <0>        -0.6283
     17 C11         4.7235    1.3265   -1.2472 C.2       1 <0>         0.2344
     18 C12         5.3816    1.1278   -0.0847 C.2       1 <0>        -0.2705
     19 C13         4.7415    1.3331    1.1506 C.2       1 <0>         0.4034
     20 O2          5.3643    1.1528    2.1787 O.2       1 <0>        -0.4570
     21 C14         3.3059    1.7704    1.2299 C.3       1 <0>        -0.1540
     22 C15         2.5647    1.2717   -0.0152 C.3       1 <0>         0.0114
     23 H3          2.5646    0.1818   -0.0309 H         1 <0>         0.1068
     24 C16         3.2898    1.8059   -1.2516 C.3       1 <0>        -0.0936
     25 C17         1.1459    1.7795    0.0007 C.2       1 <0>        -0.1464
     26 C18        -0.0126    1.0758    0.0080 C.2       1 <0>        -0.1461
     27 C19        -1.2130    1.7610    0.0173 C.2       1 <0>        -0.1585
     28 C20        -1.1962    3.1163    0.0303 C.2       1 <0>        -0.1677
     29 S1          0.5548    3.4640    0.0154 S.3       1 <0>         0.0406
     30 H4          9.9206    4.8207    1.3587 H         1 <0>         0.1178
     31 H5          9.8725    2.7935    2.7558 H         1 <0>         0.1198
     32 H6          8.4495    0.8894    2.1137 H         1 <0>         0.1211
     33 H7          7.1297    3.0358   -1.3273 H         1 <0>         0.1076
     34 H8          8.5464    4.9432   -0.6808 H         1 <0>         0.1159
     35 H9         10.0421   -1.4830   -1.4433 H         1 <0>         0.4056
     36 H10         4.8997    1.4492   -3.2817 H         1 <0>         0.4203
     37 H11         3.2634    2.7686    1.2720 H         1 <0>         0.0936
     38 H12         2.8433    1.3499    2.1228 H         1 <0>         0.1036
     39 H13         2.7893    1.4447   -2.1500 H         1 <0>         0.0975
     40 H14         3.2716    2.8957   -1.2402 H         1 <0>         0.1040
     41 H15         0.0021   -0.0041    0.0020 H         1 <0>         0.1345
     42 H16        -2.1503    1.2245    0.0184 H         1 <0>         0.1353
     43 H17        -2.0266    3.8067    0.0425 H         1 <0>         0.1866
@<TRIPOS>BOND
     1    1    6 ar
     2    1    2 ar
     3    1   30 1
     4    2    3 ar
     5    2   31 1
     6    3    4 ar
     7    3   32 1
     8    4    5 ar
     9    4    7 1
    10    5    6 ar
    11    5   33 1
    12    6   34 1
    13    7    8 1
    14    7   18 1
    15    7    9 1
    16    9   14 1
    17    9   10 2
    18   10   11 1
    19   10   16 1
    20   11   12 1
    21   11   13 1
    22   13   14 2
    23   14   15 1
    24   15   35 1
    25   16   17 1
    26   16   36 1
    27   17   24 1
    28   17   18 2
    29   18   19 1
    30   19   20 2
    31   19   21 1
    32   21   22 1
    33   21   37 1
    34   21   38 1
    35   22   23 1
    36   22   24 1
    37   22   25 1
    38   24   39 1
    39   24   40 1
    40   25   29 1
    41   25   26 2
    42   26   27 1
    43   26   41 1
    44   27   28 2
    45   27   42 1
    46   28   29 1
    47   28   43 1
@<TRIPOS>MOLECULE
ZINC37138181
   34    35     0     0     0
SMALL
USER_CHARGES

@<TRIPOS>ATOM
      1 C1         -0.0187    1.5258    0.0104 C.3       1 <0>        -0.1685
      2 C2          0.0021   -0.0041    0.0020 C.3       1 <0>         0.1971
      3 H1          0.5123   -0.3556   -0.8948 H         1 <0>         0.0984
      4 C3          0.7309   -0.5033    1.2229 C.ar      1 <0>         0.1193
      5 C4          2.1091   -0.6081    1.2005 C.ar      1 <0>        -0.1620
      6 C5          2.7699   -1.0684    2.3289 C.ar      1 <0>        -0.0684
      7 C6          2.0165   -1.4077    3.4426 C.ar      1 <0>        -0.1713
      8 C7          0.6419   -1.2765    3.3911 C.ar      1 <0>         0.1062
      9 N1          0.0471   -0.8299    2.3019 N.ar      1 <0>        -0.4816
     10 N2         -1.3723   -0.5112    0.0124 N.pl3     1 <0>        -0.7245
     11 C8         -2.0759   -0.6476   -1.1873 C.ar      1 <0>         0.2142
     12 C9         -1.4717   -0.3084   -2.3910 C.ar      1 <0>        -0.0958
     13 C10        -2.1696   -0.4448   -3.5750 C.ar      1 <0>        -0.6219
     14 C11        -3.4689   -0.9181   -3.5636 C.ar      1 <0>        -0.0693
     15 C12        -4.0742   -1.2570   -2.3675 C.ar      1 <0>        -0.0788
     16 C13        -3.3799   -1.1285   -1.1794 C.ar      1 <0>        -0.0615
     17 Cl1        -4.1379   -1.5604    0.3215 Cl        1 <0>        -0.0532
     18 S1         -1.4034   -0.0145   -5.1023 S.o2      1 <0>         2.7011
     19 O1         -2.4526    0.2829   -6.0134 O.2       1 <0>        -0.9585
     20 O2         -0.3761    0.9173   -4.7930 O.2       1 <0>        -0.9606
     21 N3         -0.6520   -1.3752   -5.6736 N.pl3     1 <0>        -1.2491
     22 H2          1.0039    1.9031    0.0027 H         1 <0>         0.0726
     23 H3         -0.5459    1.8868   -0.8726 H         1 <0>         0.0725
     24 H4         -0.5289    1.8773    0.9072 H         1 <0>         0.0660
     25 H5          2.6639   -0.3352    0.3151 H         1 <0>         0.1391
     26 H6          3.8458   -1.1610    2.3402 H         1 <0>         0.1390
     27 H7          2.4980   -1.7701    4.3388 H         1 <0>         0.1382
     28 H8          0.0480   -1.5386    4.2542 H         1 <0>         0.1591
     29 H9         -1.7940   -0.7522    0.8520 H         1 <0>         0.4180
     30 H10        -0.4573    0.0621   -2.4010 H         1 <0>         0.1498
     31 H11        -4.0122   -1.0230   -4.4911 H         1 <0>         0.1498
     32 H12        -5.0892   -1.6261   -2.3620 H         1 <0>         0.1453
     33 H13        -0.6963   -2.2020   -5.1683 H         1 <0>         0.4175
     34 H14        -0.1675   -1.3453   -6.5134 H         1 <0>         0.4220
@<TRIPOS>BOND
     1    1    2 1
     2    1   22 1
     3    1   23 1
     4    1   24 1
     5    2    3 1
     6    2    4 1
     7    2   10 1
     8    4    9 ar
     9    4    5 ar
    10    5    6 ar
    11    5   25 1
    12    6    7 ar
    13    6   26 1
    14    7    8 ar
    15    7   27 1
    16    8    9 ar
    17    8   28 1
    18   10   11 1
    19   10   29 1
    20   11   16 ar
    21   11   12 ar
    22   12   13 ar
    23   12   30 1
    24   13   14 ar
    25   13   18 1
    26   14   15 ar
    27   14   31 1
    28   15   16 ar
    29   15   32 1
    30   16   17 1
    31   18   19 2
    32   18   20 2
    33   18   21 1
    34   21   33 1
    35   21   34 1
@<TRIPOS>MOLECULE
ZINC40526651
   34    34     0     0     0
SMALL
USER_CHARGES

@<TRIPOS>ATOM
      1 C1         -0.0165    1.5243    0.0698 C.3       1 <0>        -0.1674
      2 C2          0.0039   -0.0055    0.0572 C.3       1 <0>         0.1131
      3 N1         -1.3707   -0.5121    0.0534 N.am      1 <0>        -0.7249
      4 C3         -1.5994   -1.8403    0.0425 C.2       1 <0>         0.5088
      5 O1         -0.6672   -2.6161    0.0358 O.2       1 <0>        -0.5363
      6 C4         -3.0134   -2.3615    0.0387 C.3       1 <0>         0.1184
      7 N2         -2.9939   -3.8263    0.0265 N.am      1 <0>        -0.7290
      8 C5         -4.1521   -4.5156    0.0212 C.2       1 <0>         0.7087
      9 O2         -5.2130   -3.9217    0.0265 O.2       1 <0>        -0.5675
     10 N3         -4.1342   -5.8632    0.0100 N.am      1 <0>        -0.6787
     11 C6         -5.3312   -6.5801    0.1233 C.ar      1 <0>         0.1838
     12 C7         -6.4318   -6.0027    0.7430 C.ar      1 <0>        -0.1226
     13 C8         -7.6114   -6.7121    0.8534 C.ar      1 <0>        -0.0728
     14 C9         -7.6973   -7.9973    0.3476 C.ar      1 <0>        -0.1079
     15 C10        -6.6025   -8.5748   -0.2701 C.ar      1 <0>        -0.0686
     16 C11        -5.4220   -7.8674   -0.3887 C.ar      1 <0>        -0.1143
     17 C12        -4.2317   -8.4948   -1.0673 C.3       1 <0>        -0.1156
     18 Br1        -9.3139   -8.9662    0.5018 Br        1 <0>        -0.0519
     19 H1          1.0063    1.9012    0.0726 H         1 <0>         0.0771
     20 H2         -0.5354    1.8881   -0.8170 H         1 <0>         0.0637
     21 H3         -0.5348    1.8734    0.9629 H         1 <0>         0.0637
     22 H4          0.5222   -0.3546   -0.8359 H         1 <0>         0.0704
     23 H5          0.5228   -0.3694    0.9440 H         1 <0>         0.0705
     24 H6         -2.1163    0.1083    0.0588 H         1 <0>         0.4056
     25 H7         -3.5317   -2.0124    0.9318 H         1 <0>         0.1033
     26 H8         -3.5323   -1.9976   -0.8481 H         1 <0>         0.1031
     27 H9         -2.1475   -4.3001    0.0223 H         1 <0>         0.4108
     28 H10        -3.2918   -6.3364   -0.0765 H         1 <0>         0.4112
     29 H11        -6.3652   -5.0000    1.1385 H         1 <0>         0.1566
     30 H12        -8.4676   -6.2636    1.3352 H         1 <0>         0.1359
     31 H13        -6.6721   -9.5782   -0.6636 H         1 <0>         0.1366
     32 H14        -3.6313   -9.0268   -0.3293 H         1 <0>         0.0751
     33 H15        -4.5749   -9.1947   -1.8292 H         1 <0>         0.0760
     34 H16        -3.6278   -7.7168   -1.5343 H         1 <0>         0.0651
@<TRIPOS>BOND
     1    1    2 1
     2    1   19 1
     3    1   20 1
     4    1   21 1
     5    2    3 1
     6    2   22 1
     7    2   23 1
     8    3    4 am
     9    3   24 1
    10    4    5 2
    11    4    6 1
    12    6    7 1
    13    6   25 1
    14    6   26 1
    15    7    8 am
    16    7   27 1
    17    8    9 2
    18    8   10 am
    19   10   11 1
    20   10   28 1
    21   11   16 ar
    22   11   12 ar
    23   12   13 ar
    24   12   29 1
    25   13   14 ar
    26   13   30 1
    27   14   15 ar
    28   14   18 1
    29   15   16 ar
    30   15   31 1
    31   16   17 1
    32   17   32 1
    33   17   33 1
    34   17   34 1
@<TRIPOS>MOLECULE
ZINC49397355
   34    34     0     0     0
SMALL
USER_CHARGES

@<TRIPOS>ATOM
      1 C1         -0.0187    1.5258    0.0104 C.3       1 <0>        -0.1604
      2 C2          0.0021   -0.0041    0.0020 C.3       1 <0>         0.2014
      3 H1         -1.0205   -0.3814    0.0098 H         1 <0>         0.1019
      4 C3          0.7074   -0.4901   -1.2379 C.ar      1 <0>        -0.0776
      5 C4          2.0889   -0.5108   -1.2837 C.ar      1 <0>        -0.1085
      6 C5          2.7363   -0.9568   -2.4205 C.ar      1 <0>        -0.0857
      7 C6          2.0017   -1.3826   -3.5124 C.ar      1 <0>        -0.0899
      8 C7          0.6193   -1.3617   -3.4661 C.ar      1 <0>        -0.0855
      9 C8         -0.0272   -0.9204   -2.3270 C.ar      1 <0>        -0.0999
     10 Br1         2.8868   -1.9925   -5.0682 Br        1 <0>        -0.0469
     11 N1          0.7106   -0.4894    1.1889 N.am      1 <0>        -0.7394
     12 C9          0.0512   -0.6335    2.3554 C.2       1 <0>         0.7110
     13 O1         -1.1318   -0.3607    2.4228 O.2       1 <0>        -0.5881
     14 N2          0.7031   -1.0799    3.4473 N.am      1 <0>        -0.7361
     15 C10        -0.0137   -1.2366    4.7154 C.3       1 <0>         0.1203
     16 C11         0.9353   -1.7460    5.7693 C.2       1 <0>         0.5077
     17 O2          2.0962   -1.9575    5.4888 O.2       1 <0>        -0.5359
     18 N3          0.4941   -1.9667    7.0235 N.am      1 <0>        -0.7295
     19 C12         1.4167   -2.4620    8.0481 C.3       1 <0>         0.0857
     20 H2          1.0039    1.9031    0.0027 H         1 <0>         0.0596
     21 H3         -0.5459    1.8868   -0.8726 H         1 <0>         0.0701
     22 H4         -0.5289    1.8773    0.9072 H         1 <0>         0.0690
     23 H5          2.6625   -0.1780   -0.4312 H         1 <0>         0.1303
     24 H6          3.8156   -0.9726   -2.4563 H         1 <0>         0.1354
     25 H7          0.0453   -1.6941   -4.3184 H         1 <0>         0.1364
     26 H8         -1.1065   -0.9080   -2.2892 H         1 <0>         0.1364
     27 H9          1.6544   -0.7070    1.1351 H         1 <0>         0.3974
     28 H10         1.6468   -1.2976    3.3936 H         1 <0>         0.4083
     29 H11        -0.4180   -0.2730    5.0256 H         1 <0>         0.1004
     30 H12        -0.8293   -1.9481    4.5862 H         1 <0>         0.1003
     31 H13        -0.4343   -1.7976    7.2478 H         1 <0>         0.4070
     32 H14         1.8210   -3.4255    7.7378 H         1 <0>         0.0626
     33 H15         2.2323   -1.7504    8.1772 H         1 <0>         0.0626
     34 H16         0.8834   -2.5785    8.9915 H         1 <0>         0.0798
@<TRIPOS>BOND
     1    1    2 1
     2    1   20 1
     3    1   21 1
     4    1   22 1
     5    2    3 1
     6    2    4 1
     7    2   11 1
     8    4    9 ar
     9    4    5 ar
    10    5    6 ar
    11    5   23 1
    12    6    7 ar
    13    6   24 1
    14    7    8 ar
    15    7   10 1
    16    8    9 ar
    17    8   25 1
    18    9   26 1
    19   11   12 am
    20   11   27 1
    21   12   13 2
    22   12   14 am
    23   14   15 1
    24   14   28 1
    25   15   16 1
    26   15   29 1
    27   15   30 1
    28   16   17 2
    29   16   18 am
    30   18   19 1
    31   18   31 1
    32   19   32 1
    33   19   33 1
    34   19   34 1
@<TRIPOS>MOLECULE
ZINC12469126
   39    42     0     0     0
SMALL
USER_CHARGES

@<TRIPOS>ATOM
      1 C1         -0.0184    1.5028    0.0103 C.3       1 <0>        -0.1187
      2 C2          0.0021   -0.0041    0.0020 C.ar      1 <0>        -0.0770
      3 C3          0.0057   -0.6887   -1.1989 C.ar      1 <0>        -0.1200
      4 C4          0.0245   -2.0709   -1.2065 C.ar      1 <0>        -0.0989
      5 C5          0.0400   -2.7685   -0.0132 C.ar      1 <0>        -0.1217
      6 C6          0.0373   -2.0839    1.1877 C.ar      1 <0>        -0.1061
      7 C7          0.0229   -0.7016    1.1953 C.ar      1 <0>        -0.1176
      8 C8          0.0595   -4.2753   -0.0215 C.3       1 <0>         0.1982
      9 H1          0.4100   -4.6314   -0.9902 H         1 <0>         0.1197
     10 C9         -1.3528   -4.8096    0.2429 C.3       1 <0>        -0.1418
     11 C10        -1.8718   -4.2623    1.5783 C.3       1 <0>         0.2600
     12 H2         -2.0794   -3.1968    1.4804 H         1 <0>         0.1099
     13 N1         -0.8489   -4.4702    2.6030 N.pl3     1 <0>        -0.4086
     14 C11         0.4588   -4.7049    2.3394 C.2       1 <0>         0.5511
     15 N2          1.0848   -4.8455    3.4774 N.2       1 <0>        -0.5973
     16 C12         0.2131   -4.7058    4.4871 C.2       1 <0>         0.4889
     17 N3         -0.9824   -4.4743    3.9921 N.2       1 <0>        -0.3602
     18 N4          0.5251   -4.7924    5.8447 N.pl3     1 <0>        -0.8247
     19 N5          0.9587   -4.7650    1.0412 N.pl3     1 <0>        -0.7033
     20 C13        -3.1337   -4.9892    1.9658 C.2       1 <0>        -0.1558
     21 C14        -4.3773   -4.4905    2.1711 C.2       1 <0>        -0.1306
     22 C15        -5.3965   -5.3552    2.5236 C.2       1 <0>        -0.1590
     23 C16        -5.1223   -6.6762    2.6536 C.2       1 <0>        -0.1676
     24 S1         -3.3805   -6.7317    2.2659 S.3       1 <0>         0.0606
     25 H3          1.0042    1.8801    0.0026 H         1 <0>         0.0725
     26 H4         -0.5455    1.8639   -0.8728 H         1 <0>         0.0684
     27 H5         -0.5286    1.8543    0.9071 H         1 <0>         0.0672
     28 H6         -0.0064   -0.1436   -2.1312 H         1 <0>         0.1252
     29 H7          0.0266   -2.6057   -2.1448 H         1 <0>         0.1269
     30 H8          0.0491   -2.6289    2.1200 H         1 <0>         0.1234
     31 H9          0.0245   -0.1667    2.1335 H         1 <0>         0.1205
     32 H10        -2.0168   -4.4928   -0.5613 H         1 <0>         0.1135
     33 H11        -1.3269   -5.8986    0.2829 H         1 <0>         0.0916
     34 H12         1.4381   -4.9667    6.1223 H         1 <0>         0.4132
     35 H13        -0.1709   -4.6782    6.5105 H         1 <0>         0.4133
     36 H14         1.8439   -5.1095    0.8448 H         1 <0>         0.4288
     37 H15        -4.5689   -3.4333    2.0613 H         1 <0>         0.1334
     38 H16        -6.3963   -4.9837    2.6933 H         1 <0>         0.1360
     39 H17        -5.7861   -7.4858    2.9188 H         1 <0>         0.1868
@<TRIPOS>BOND
     1    1    2 1
     2    1   25 1
     3    1   26 1
     4    1   27 1
     5    2    7 ar
     6    2    3 ar
     7    3    4 ar
     8    3   28 1
     9    4    5 ar
    10    4   29 1
    11    5    6 ar
    12    5    8 1
    13    6    7 ar
    14    6   30 1
    15    7   31 1
    16    8    9 1
    17    8   19 1
    18    8   10 1
    19   10   11 1
    20   10   32 1
    21   10   33 1
    22   11   12 1
    23   11   13 1
    24   11   20 1
    25   13   17 1
    26   13   14 1
    27   14   15 2
    28   14   19 1
    29   15   16 1
    30   16   17 2
    31   16   18 1
    32   18   34 1
    33   18   35 1
    34   19   36 1
    35   20   24 1
    36   20   21 2
    37   21   22 1
    38   21   37 1
    39   22   23 2
    40   22   38 1
    41   23   24 1
    42   23   39 1
@<TRIPOS>MOLECULE
ZINC05588232
   47    49     0     0     0
SMALL
USER_CHARGES
9-(m-tolylthiocarbamoylformyl)amino-8-thiabicyclo[5.3.0]deca-9,11-diene-10-carboxamide
@<TRIPOS>ATOM
      1 C1         -1.7217    0.9846   -1.7914 C.3       1 <0>        -0.1160
      2 C2         -0.8422    1.7537   -0.8395 C.ar      1 <0>        -0.0785
      3 C3         -0.0157    1.0757    0.0382 C.ar      1 <0>        -0.0994
      4 C4          0.7972    1.7774    0.9094 C.ar      1 <0>        -0.1047
      5 C5          0.7821    3.1584    0.9097 C.ar      1 <0>        -0.0724
      6 C6         -0.0509    3.8426    0.0334 C.ar      1 <0>         0.0890
      7 C7         -0.8665    3.1342   -0.8407 C.ar      1 <0>        -0.1075
      8 N1         -0.0691    5.2393    0.0313 N.pl3     1 <0>        -0.5390
      9 C8          1.0854    5.9284    0.1262 C.2       1 <0>         0.2764
     10 S1          2.5821    5.0976    0.1077 S.2       1 <0>        -0.4452
     11 C9          1.0590    7.4074    0.2467 C.2       1 <0>         0.5414
     12 O1         -0.0030    7.9969    0.2598 O.2       1 <0>        -0.4788
     13 N2          2.2134    8.0965    0.3415 N.am      1 <0>        -0.5825
     14 C10         2.1888    9.4760    0.4539 C.2       1 <0>         0.0578
     15 C11         3.2588   10.3509    0.5669 C.2       1 <0>        -0.2090
     16 C12         2.9634   11.7733    0.6641 C.2       1 <0>        -0.0628
     17 C13         1.6487   12.0840    0.6508 C.2       1 <0>        -0.1930
     18 S2          0.8141   10.5285    0.4953 S.3       1 <0>         0.2264
     19 C14         1.0283   13.4418    0.7595 C.3       1 <0>        -0.0393
     20 C15         1.7220   14.3959   -0.2221 C.3       1 <0>        -0.1159
     21 C16         2.9071   15.0415    0.4892 C.3       1 <0>        -0.1226
     22 C17         3.5155   14.0628    1.4916 C.3       1 <0>        -0.1241
     23 C18         4.0547   12.8310    0.7727 C.3       1 <0>        -0.0584
     24 C19         4.6407    9.8606    0.5832 C.2       1 <0>         0.5807
     25 O2          5.2565    9.7415   -0.4598 O.2       1 <0>        -0.5274
     26 N3          5.2289    9.5418    1.7532 N.am      1 <0>        -0.8459
     27 H1         -2.6852    0.7909   -1.3198 H         1 <0>         0.0742
     28 H2         -1.8725    1.5687   -2.6992 H         1 <0>         0.0682
     29 H3         -1.2437    0.0381   -2.0435 H         1 <0>         0.0718
     30 H4         -0.0020   -0.0042    0.0401 H         1 <0>         0.1304
     31 H5          1.4448    1.2449    1.5901 H         1 <0>         0.1344
     32 H6          1.4175    3.7059    1.5901 H         1 <0>         0.1389
     33 H7         -1.5156    3.6629   -1.5230 H         1 <0>         0.1299
     34 H8         -0.9125    5.7133   -0.0384 H         1 <0>         0.4253
     35 H9          3.0615    7.6258    0.3311 H         1 <0>         0.4368
     36 H10        -0.0324   13.3778    0.5167 H         1 <0>         0.0761
     37 H11         1.1474   13.8160    1.7764 H         1 <0>         0.0921
     38 H12         2.0742   13.8377   -1.0895 H         1 <0>         0.0686
     39 H13         1.0211   15.1673   -0.5413 H         1 <0>         0.0722
     40 H14         3.6614   15.3209   -0.2464 H         1 <0>         0.0648
     41 H15         2.5700   15.9346    1.0153 H         1 <0>         0.0654
     42 H16         4.3293   14.5534    2.0257 H         1 <0>         0.0674
     43 H17         2.7515   13.7574    2.2064 H         1 <0>         0.0741
     44 H18         4.3872   13.1118   -0.2266 H         1 <0>         0.0811
     45 H19         4.8963   12.4243    1.3333 H         1 <0>         0.0700
     46 H20         4.7381    9.6367    2.5845 H         1 <0>         0.4035
     47 H21         6.1430    9.2175    1.7640 H         1 <0>         0.4054
@<TRIPOS>BOND
     1    1    2 1
     2    1   27 1
     3    1   28 1
     4    1   29 1
     5    2    7 ar
     6    2    3 ar
     7    3    4 ar
     8    3   30 1
     9    4    5 ar
    10    4   31 1
    11    5    6 ar
    12    5   32 1
    13    6    7 ar
    14    6    8 1
    15    7   33 1
    16    8    9 1
    17    8   34 1
    18    9   10 2
    19    9   11 1
    20   11   12 2
    21   11   13 am
    22   13   14 1
    23   13   35 1
    24   14   18 1
    25   14   15 2
    26   15   16 1
    27   15   24 1
    28   16   23 1
    29   16   17 2
    30   17   18 1
    31   17   19 1
    32   19   20 1
    33   19   36 1
    34   19   37 1
    35   20   21 1
    36   20   38 1
    37   20   39 1
    38   21   22 1
    39   21   40 1
    40   21   41 1
    41   22   23 1
    42   22   42 1
    43   22   43 1
    44   23   44 1
    45   23   45 1
    46   24   25 2
    47   24   26 am
    48   26   46 1
    49   26   47 1
@<TRIPOS>MOLECULE
ZINC35599716
   29    29     0     0     0
SMALL
USER_CHARGES

@<TRIPOS>ATOM
      1 C1          0.2483    1.7276    1.4477 C.3       1 <0>        -0.1725
      2 C2          0.3398    0.2150    1.2370 C.3       1 <0>         0.1520
      3 H1         -0.6088   -0.1559    0.8488 H         1 <0>         0.0845
      4 C3          1.4559   -0.0941    0.2371 C.3       1 <0>         0.0692
      5 O1          2.6774    0.4931    0.6902 O.3       1 <0>        -0.5659
      6 N1          0.6338   -0.4391    2.5145 N.pl3     1 <0>        -1.1036
      7 S1         -0.6006   -1.0410    3.4399 S.o2      1 <0>         2.6844
      8 O2          0.0001   -1.6287    4.5858 O.2       1 <0>        -0.9291
      9 O3         -1.5764   -0.0123    3.5342 O.2       1 <0>        -0.9524
     10 C4         -1.3410   -2.3555    2.5295 C.ar      1 <0>        -0.7258
     11 C5         -2.4547   -2.1106    1.7360 C.ar      1 <0>         0.3190
     12 C6         -3.0353   -3.1490    1.0195 C.ar      1 <0>        -0.1656
     13 C7         -2.5039   -4.4226    1.0977 C.ar      1 <0>         0.0058
     14 C8         -1.3952   -4.6635    1.8891 C.ar      1 <0>        -0.1369
     15 C9         -0.8111   -3.6296    2.5997 C.ar      1 <0>         0.0419
     16 Br1         0.7095   -3.9624    3.6735 Br        1 <0>         0.0086
     17 Br2        -3.2938   -5.8371    0.1225 Br        1 <0>        -0.0195
     18 N2         -2.9896   -0.8227    1.6593 N.pl3     1 <0>        -0.8608
     19 H2          1.1969    2.0985    1.8359 H         1 <0>         0.0767
     20 H3          0.0296    2.2143    0.4972 H         1 <0>         0.0681
     21 H4         -0.5468    1.9478    2.1600 H         1 <0>         0.0699
     22 H5          1.5806   -1.1737    0.1541 H         1 <0>         0.0553
     23 H6          1.1946    0.3176   -0.7378 H         1 <0>         0.0613
     24 H7          3.4301    0.3371    0.1035 H         1 <0>         0.3847
     25 H8          1.5514   -0.5196    2.8183 H         1 <0>         0.4274
     26 H9         -3.9013   -2.9616    0.4020 H         1 <0>         0.1492
     27 H10        -0.9821   -5.6596    1.9493 H         1 <0>         0.1503
     28 H11        -2.4222   -0.0517    1.8157 H         1 <0>         0.4130
     29 H12        -3.9286   -0.6992    1.4496 H         1 <0>         0.4108
@<TRIPOS>BOND
     1    1    2 1
     2    1   19 1
     3    1   20 1
     4    1   21 1
     5    2    3 1
     6    2    4 1
     7    2    6 1
     8    4    5 1
     9    4   22 1
    10    4   23 1
    11    5   24 1
    12    6    7 1
    13    6   25 1
    14    7    8 2
    15    7    9 2
    16    7   10 1
    17   10   15 ar
    18   10   11 ar
    19   11   12 ar
    20   11   18 1
    21   12   13 ar
    22   12   26 1
    23   13   14 ar
    24   13   17 1
    25   14   15 ar
    26   14   27 1
    27   15   16 1
    28   18   28 1
    29   18   29 1
@<TRIPOS>MOLECULE
ZINC40349281
   37    38     0     0     0
SMALL
USER_CHARGES

@<TRIPOS>ATOM
      1 C1         -0.0706    1.8256   -0.4115 C.3       1 <0>        -0.1390
      2 C2         -0.1678    0.2997   -0.3552 C.3       1 <0>        -0.1084
      3 S1          0.7947   -0.4181   -1.7150 S.3       1 <0>        -0.1174
      4 C3          0.5849   -2.1560   -1.5147 C.ar      1 <0>        -0.1026
      5 C4         -0.1946   -2.6478   -0.4779 C.ar      1 <0>        -0.1118
      6 C5         -0.3581   -4.0119   -0.3231 C.ar      1 <0>        -0.1133
      7 C6          0.2537   -4.8895   -1.1991 C.ar      1 <0>        -0.0920
      8 C7          1.0328   -4.4081   -2.2352 C.ar      1 <0>        -0.1554
      9 C8          1.1974   -3.0416   -2.4020 C.ar      1 <0>         0.1751
     10 N1          1.9808   -2.5520   -3.4540 N.pl3     1 <0>        -1.0498
     11 S2          1.9897   -3.3345   -4.9134 S.o2      1 <0>         2.6920
     12 O1          2.7608   -2.5339   -5.7988 O.2       1 <0>        -0.9458
     13 O2          2.3061   -4.6933   -4.6438 O.2       1 <0>        -0.9439
     14 C9          0.3376   -3.3141   -5.5256 C.ar      1 <0>        -0.6338
     15 C10        -0.5294   -4.3421   -5.2048 C.ar      1 <0>        -0.0571
     16 C11        -1.8273   -4.3313   -5.6819 C.ar      1 <0>        -0.1157
     17 C12        -2.2622   -3.2889   -6.4835 C.ar      1 <0>         0.0854
     18 C13        -1.3892   -2.2526   -6.8073 C.ar      1 <0>         0.1780
     19 C14        -0.0902   -2.2674   -6.3207 C.ar      1 <0>        -0.0827
     20 N2         -1.8231   -1.1968   -7.6173 N.pl3     1 <0>        -0.8696
     21 O3         -3.5384   -3.2772   -6.9539 O.3       1 <0>        -0.4912
     22 H1          0.9727    2.1269   -0.3168 H         1 <0>         0.0677
     23 H2         -0.4662    2.1800   -1.3633 H         1 <0>         0.0666
     24 H3         -0.6489    2.2569    0.4056 H         1 <0>         0.0773
     25 H4          0.2278   -0.0547    0.5966 H         1 <0>         0.0892
     26 H5         -1.2111   -0.0016   -0.4499 H         1 <0>         0.0885
     27 H6         -0.6734   -1.9652    0.2086 H         1 <0>         0.1271
     28 H7         -0.9653   -4.3931    0.4846 H         1 <0>         0.1296
     29 H8          0.1230   -5.9541   -1.0734 H         1 <0>         0.1349
     30 H9          1.5095   -5.0966   -2.9173 H         1 <0>         0.1666
     31 H10         2.5183   -1.7544   -3.3280 H         1 <0>         0.4288
     32 H11        -0.1920   -5.1560   -4.5802 H         1 <0>         0.1422
     33 H12        -2.5019   -5.1361   -5.4297 H         1 <0>         0.1403
     34 H13         0.5878   -1.4634   -6.5661 H         1 <0>         0.1430
     35 H14        -2.7327   -1.1860   -7.9541 H         1 <0>         0.4045
     36 H15        -1.2142   -0.4759   -7.8419 H         1 <0>         0.4030
     37 H16        -4.1680   -2.8303   -6.3717 H         1 <0>         0.3896
@<TRIPOS>BOND
     1    1    2 1
     2    1   22 1
     3    1   23 1
     4    1   24 1
     5    2    3 1
     6    2   25 1
     7    2   26 1
     8    3    4 1
     9    4    9 ar
    10    4    5 ar
    11    5    6 ar
    12    5   27 1
    13    6    7 ar
    14    6   28 1
    15    7    8 ar
    16    7   29 1
    17    8    9 ar
    18    8   30 1
    19    9   10 1
    20   10   11 1
    21   10   31 1
    22   11   12 2
    23   11   13 2
    24   11   14 1
    25   14   19 ar
    26   14   15 ar
    27   15   16 ar
    28   15   32 1
    29   16   17 ar
    30   16   33 1
    31   17   18 ar
    32   17   21 1
    33   18   19 ar
    34   18   20 1
    35   19   34 1
    36   20   35 1
    37   20   36 1
    38   21   37 1
@<TRIPOS>MOLECULE
ZINC48826500
   34    34     0     0     0
SMALL
USER_CHARGES

@<TRIPOS>ATOM
      1 C1         -0.0187    1.5258    0.0104 C.3       1 <0>        -0.1616
      2 C2          0.0021   -0.0041    0.0020 C.3       1 <0>         0.1445
      3 H1         -1.0205   -0.3814    0.0098 H         1 <0>         0.1173
      4 C3          0.7309   -0.5033    1.2229 C.2       1 <0>         0.5130
      5 O1          1.7253   -1.1865    1.0985 O.2       1 <0>        -0.5322
      6 N1          0.2778   -0.1906    2.4531 N.am      1 <0>        -0.7258
      7 C4          0.9864   -0.6759    3.6400 C.3       1 <0>         0.1223
      8 C5          0.2702   -0.1825    4.8988 C.3       1 <0>        -0.0909
      9 C6          0.9991   -0.6817    6.1197 C.ar      1 <0>        -0.0896
     10 C7          0.6588   -1.9004    6.6770 C.ar      1 <0>        -0.0677
     11 C8          1.3265   -2.3599    7.7963 C.ar      1 <0>        -0.1440
     12 C9          2.3369   -1.5994    8.3601 C.ar      1 <0>         0.1277
     13 C10         2.6772   -0.3785    7.8011 C.ar      1 <0>        -0.1304
     14 C11         2.0110    0.0765    6.6779 C.ar      1 <0>        -0.0564
     15 Br1         4.0568    0.6620    8.5693 Br        1 <0>        -0.0244
     16 F1          2.9899   -2.0475    9.4546 F         1 <0>        -0.1222
     17 N2          0.6878   -0.4765   -1.2033 N.am      1 <0>        -0.7304
     18 C12         0.0062   -0.6081   -2.3585 C.2       1 <0>         0.7103
     19 O2         -1.1778   -0.3348   -2.4004 O.2       1 <0>        -0.5943
     20 N3          0.6370   -1.0428   -3.4674 N.am      1 <0>        -0.8642
     21 H2          1.0039    1.9031    0.0027 H         1 <0>         0.0642
     22 H3         -0.5459    1.8868   -0.8726 H         1 <0>         0.0778
     23 H4         -0.5289    1.8773    0.9072 H         1 <0>         0.0721
     24 H5         -0.5174    0.3558    2.5526 H         1 <0>         0.4050
     25 H6          1.0012   -1.7658    3.6340 H         1 <0>         0.0738
     26 H7          2.0090   -0.2986    3.6322 H         1 <0>         0.0738
     27 H8          0.2555    0.9074    4.9048 H         1 <0>         0.0870
     28 H9         -0.7524   -0.5597    4.9065 H         1 <0>         0.0883
     29 H10        -0.1295   -2.4935    6.2375 H         1 <0>         0.1421
     30 H11         1.0600   -3.3117    8.2314 H         1 <0>         0.1476
     31 H12         2.2789    1.0263    6.2390 H         1 <0>         0.1439
     32 H13         1.6324   -0.6946   -1.1699 H         1 <0>         0.4069
     33 H14         1.5816   -1.2609   -3.4340 H         1 <0>         0.3991
     34 H15         0.1465   -1.1375   -4.2988 H         1 <0>         0.4174
@<TRIPOS>BOND
     1    1    2 1
     2    1   21 1
     3    1   22 1
     4    1   23 1
     5    2    3 1
     6    2    4 1
     7    2   17 1
     8    4    5 2
     9    4    6 am
    10    6    7 1
    11    6   24 1
    12    7    8 1
    13    7   25 1
    14    7   26 1
    15    8    9 1
    16    8   27 1
    17    8   28 1
    18    9   14 ar
    19    9   10 ar
    20   10   11 ar
    21   10   29 1
    22   11   12 ar
    23   11   30 1
    24   12   13 ar
    25   12   16 1
    26   13   14 ar
    27   13   15 1
    28   14   31 1
    29   17   18 am
    30   17   32 1
    31   18   19 2
    32   18   20 am
    33   20   33 1
    34   20   34 1
@<TRIPOS>MOLECULE
ZINC47884398
   42    44     0     0     0
SMALL
USER_CHARGES

@<TRIPOS>ATOM
      1 C1         -0.0167    1.3829    0.0096 C.ar      1 <0>        -0.1231
      2 C2          1.1693    2.0901    0.0021 C.ar      1 <0>        -0.0788
      3 C3          2.3817    1.4119   -0.0131 C.ar      1 <0>        -0.1117
      4 C4          2.3993    0.0229   -0.0208 C.ar      1 <0>        -0.1199
      5 C5          1.2120   -0.6823   -0.0132 C.ar      1 <0>        -0.1240
      6 C6          0.0021   -0.0041    0.0020 C.ar      1 <0>         0.1028
      7 O1         -1.1667   -0.6995    0.0099 O.3       1 <0>        -0.4979
      8 S1          3.8958    2.3130   -0.0233 S.3       1 <0>        -0.0176
      9 C7          5.1729    1.0248   -0.0423 C.3       1 <0>        -0.1533
     10 C8          6.5355    1.6685   -0.0523 C.2       1 <0>         0.5296
     11 O2          6.6353    2.8771   -0.0472 O.2       1 <0>        -0.4757
     12 N1          7.6432    0.9009   -0.0670 N.am      1 <0>        -0.6155
     13 C9          8.8970    1.4931   -0.0762 C.2       1 <0>         0.0336
     14 C10        10.1342    0.8687   -0.0970 C.2       1 <0>        -0.2317
     15 C11        11.3091    1.7227   -0.1026 C.2       1 <0>        -0.0634
     16 C12        11.0315    3.0443   -0.0859 C.2       1 <0>        -0.2210
     17 S2          9.2649    3.1316   -0.0721 S.3       1 <0>         0.2919
     18 C13        12.0182    4.1708   -0.0847 C.3       1 <0>        -0.0358
     19 C14        13.3987    3.6021    0.2752 C.3       1 <0>        -0.1144
     20 C15        13.6592    2.3566   -0.5768 C.3       1 <0>        -0.1198
     21 C16        12.7437    1.2162   -0.1260 C.3       1 <0>        -0.0602
     22 C17        10.2521   -0.5927   -0.1123 C.2       1 <0>         0.5849
     23 O3         10.2887   -1.1892   -1.1726 O.2       1 <0>        -0.5336
     24 N2         10.3198   -1.2755    1.0477 N.am      1 <0>        -0.8480
     25 H1         -0.9593    1.9099    0.0260 H         1 <0>         0.1370
     26 H2          1.1544    3.1700    0.0077 H         1 <0>         0.1355
     27 H3          3.3412   -0.5054   -0.0330 H         1 <0>         0.1250
     28 H4          1.2255   -1.7622   -0.0195 H         1 <0>         0.1334
     29 H5         -1.5134   -0.8959   -0.8711 H         1 <0>         0.3928
     30 H6          5.0725    0.4005    0.8456 H         1 <0>         0.1263
     31 H7          5.0551    0.4095   -0.9343 H         1 <0>         0.1266
     32 H8          7.5635   -0.0658   -0.0711 H         1 <0>         0.4203
     33 H9         12.0554    4.6276   -1.0736 H         1 <0>         0.0832
     34 H10        11.7239    4.9162    0.6541 H         1 <0>         0.0820
     35 H11        14.1656    4.3498    0.0728 H         1 <0>         0.0745
     36 H12        13.4187    3.3328    1.3312 H         1 <0>         0.0681
     37 H13        13.4621    2.5865   -1.6239 H         1 <0>         0.0676
     38 H14        14.6996    2.0518   -0.4639 H         1 <0>         0.0707
     39 H15        13.0324    0.8892    0.8729 H         1 <0>         0.0771
     40 H16        12.8260    0.3831   -0.8240 H         1 <0>         0.0755
     41 H17        10.2906   -0.8001    1.8927 H         1 <0>         0.4036
     42 H18        10.3978   -2.2423    1.0376 H         1 <0>         0.4033
@<TRIPOS>BOND
     1    1    6 ar
     2    1    2 ar
     3    1   25 1
     4    2    3 ar
     5    2   26 1
     6    3    4 ar
     7    3    8 1
     8    4    5 ar
     9    4   27 1
    10    5    6 ar
    11    5   28 1
    12    6    7 1
    13    7   29 1
    14    8    9 1
    15    9   10 1
    16    9   30 1
    17    9   31 1
    18   10   11 2
    19   10   12 am
    20   12   13 1
    21   12   32 1
    22   13   17 1
    23   13   14 2
    24   14   15 1
    25   14   22 1
    26   15   21 1
    27   15   16 2
    28   16   17 1
    29   16   18 1
    30   18   19 1
    31   18   33 1
    32   18   34 1
    33   19   20 1
    34   19   35 1
    35   19   36 1
    36   20   21 1
    37   20   37 1
    38   20   38 1
    39   21   39 1
    40   21   40 1
    41   22   23 2
    42   22   24 am
    43   24   41 1
    44   24   42 1
@<TRIPOS>MOLECULE
ZINC06493885
   26    27     0     0     0
SMALL
USER_CHARGES
5-[[(4-bromophenyl)amino]methylene]-2-thioxo-hexahydropyrimidine-4,6-dione
@<TRIPOS>ATOM
      1 C1         -0.0696    8.6029   -0.1521 C.ar      1 <0>        -0.1540
      2 C2         -0.0854    9.9799   -0.2550 C.ar      1 <0>        -0.0533
      3 C3         -1.2901   10.6547   -0.3438 C.ar      1 <0>        -0.1080
      4 C4         -2.4820    9.9519   -0.3365 C.ar      1 <0>        -0.0553
      5 C5         -2.4723    8.5744   -0.2400 C.ar      1 <0>        -0.1338
      6 C6         -1.2644    7.8942   -0.1502 C.ar      1 <0>         0.1462
      7 N1         -1.2514    6.4998   -0.0525 N.pl3     1 <0>        -0.6099
      8 C7         -0.0772    5.8404    0.0346 C.2       1 <0>         0.3330
      9 C8         -0.0580    4.4581    0.0210 C.2       1 <0>        -0.4228
     10 C9          1.2094    3.7068   -0.0223 C.2       1 <0>         0.5795
     11 O1          2.2789    4.2865   -0.0465 O.2       1 <0>        -0.4938
     12 N2          1.1515    2.3592   -0.0338 N.am      1 <0>        -0.6307
     13 C10        -0.0197    1.7079   -0.0066 C.2       1 <0>         0.5604
     14 S1          0.0041   -0.0038   -0.0234 S.2       1 <0>        -0.5345
     15 N3         -1.2088    2.3257    0.0277 N.am      1 <0>        -0.6305
     16 C11        -1.3040    3.6712    0.0485 C.2       1 <0>         0.5787
     17 O2         -2.3891    4.2203    0.0851 O.2       1 <0>        -0.5145
     18 Br1        -1.3077   12.5410   -0.4760 Br        1 <0>        -0.0368
     19 H1          0.8708    8.0772   -0.0776 H         1 <0>         0.1412
     20 H2          0.8434   10.5311   -0.2613 H         1 <0>         0.1447
     21 H3         -3.4208   10.4811   -0.4066 H         1 <0>         0.1446
     22 H4         -3.4029    8.0263   -0.2347 H         1 <0>         0.1426
     23 H5         -2.1983    5.9400   -0.0466 H         1 <0>         0.4609
     24 H6          0.8646    6.4028    0.1164 H         1 <0>         0.1866
     25 H7          2.0793    1.7691   -0.0661 H         1 <0>         0.4802
     26 H8         -2.1359    1.7339    0.0395 H         1 <0>         0.4796
@<TRIPOS>BOND
     1    1    6 ar
     2    1    2 ar
     3    1   19 1
     4    2    3 ar
     5    2   20 1
     6    3    4 ar
     7    3   18 1
     8    4    5 ar
     9    4   21 1
    10    5    6 ar
    11    5   22 1
    12    6    7 1
    13    7    8 1
    14    7   23 1
    15    8    9 2
    16    8   24 1
    17    9   16 1
    18    9   10 1
    19   10   11 2
    20   10   12 am
    21   12   13 1
    22   12   25 1
    23   13   14 2
    24   13   15 1
    25   15   16 am
    26   15   26 1
    27   16   17 2
@<TRIPOS>MOLECULE
ZINC36129133
   36    37     0     0     0
SMALL
USER_CHARGES

@<TRIPOS>ATOM
      1 C1          6.0646    3.4723   -2.9426 C.ar      1 <0>        -0.2338
      2 C2          5.6515    2.5415   -2.0073 C.ar      1 <0>         0.0728
      3 C3          5.2493    2.9526   -0.7519 C.ar      1 <0>        -0.7165
      4 C4          5.2596    4.3037   -0.4275 C.ar      1 <0>         0.3334
      5 C5          5.6746    5.2376   -1.3674 C.ar      1 <0>        -0.2495
      6 C6          6.0765    4.8200   -2.6236 C.ar      1 <0>         0.1948
      7 F1          6.4807    5.7272   -3.5395 F         1 <0>        -0.1326
      8 N1          4.8527    4.7216    0.8416 N.pl3     1 <0>        -0.8738
      9 S1          4.7227    1.7645    0.4379 S.o2      1 <0>         2.7064
     10 O1          3.4488    2.1908    0.9012 O.2       1 <0>        -0.9706
     11 O2          4.9326    0.4856   -0.1448 O.2       1 <0>        -0.9586
     12 N2          5.7557    1.8723    1.7278 N.pl3     1 <0>        -0.9897
     13 C7          5.3743    2.6231    2.9317 C.3       1 <0>         0.1153
     14 C8          6.4704    3.6473    3.2420 C.3       1 <0>        -0.1407
     15 C9          7.8179    2.9297    3.3494 C.3       1 <0>        -0.1180
     16 C10         8.1481    2.2583    2.0144 C.3       1 <0>        -0.1262
     17 C11         7.0687    1.2137    1.6924 C.3       1 <0>         0.1666
     18 H1          7.0968    0.4148    2.4334 H         1 <0>         0.0926
     19 C12         7.3138    0.6330    0.2982 C.3       1 <0>        -0.0129
     20 O3          7.3532    1.6931   -0.6592 O.3       1 <0>        -0.5642
     21 H2          6.3829    3.1475   -3.9222 H         1 <0>         0.1396
     22 H3          5.6430    1.4913   -2.2592 H         1 <0>         0.1459
     23 H4          5.6834    6.2884   -1.1183 H         1 <0>         0.1381
     24 H5          4.3500    4.1196    1.4124 H         1 <0>         0.4025
     25 H6          5.0729    5.6138    1.1522 H         1 <0>         0.4083
     26 H7          4.4306    3.1396    2.7564 H         1 <0>         0.0872
     27 H8          5.2671    1.9368    3.7717 H         1 <0>         0.0797
     28 H9          6.5146    4.3865    2.4421 H         1 <0>         0.0741
     29 H10         6.2469    4.1448    4.1857 H         1 <0>         0.0754
     30 H11         8.5958    3.6528    3.5945 H         1 <0>         0.0651
     31 H12         7.7652    2.1737    4.1328 H         1 <0>         0.0634
     32 H13         8.1765    3.0106    1.2260 H         1 <0>         0.0799
     33 H14         9.1186    1.7672    2.0844 H         1 <0>         0.0704
     34 H15         8.2642    0.0994    0.2888 H         1 <0>         0.0646
     35 H16         6.5079   -0.0558    0.0447 H         1 <0>         0.1300
     36 H17         7.5055    1.3976   -1.5672 H         1 <0>         0.3812
@<TRIPOS>BOND
     1    1    6 ar
     2    1    2 ar
     3    1   21 1
     4    2    3 ar
     5    2   22 1
     6    3    4 ar
     7    3    9 1
     8    4    5 ar
     9    4    8 1
    10    5    6 ar
    11    5   23 1
    12    6    7 1
    13    8   24 1
    14    8   25 1
    15    9   10 2
    16    9   11 2
    17    9   12 1
    18   12   17 1
    19   12   13 1
    20   13   14 1
    21   13   26 1
    22   13   27 1
    23   14   15 1
    24   14   28 1
    25   14   29 1
    26   15   16 1
    27   15   30 1
    28   15   31 1
    29   16   17 1
    30   16   32 1
    31   16   33 1
    32   17   18 1
    33   17   19 1
    34   19   20 1
    35   19   34 1
    36   19   35 1
    37   20   36 1
@<TRIPOS>MOLECULE
ZINC37553120
   33    34     0     0     0
SMALL
USER_CHARGES

@<TRIPOS>ATOM
      1 C1         -0.0167    1.3802    0.0096 C.ar      1 <0>        -0.0529
      2 C2          1.1908    2.0605    0.0018 C.ar      1 <0>        -0.2285
      3 C3          2.3803    1.3348   -0.0135 C.ar      1 <0>         0.2075
      4 N1          2.3619    0.0057   -0.0205 N.ar      1 <0>        -0.5772
      5 C4          1.2249   -0.6696   -0.0132 C.ar      1 <0>         0.4478
      6 C5          0.0021   -0.0041    0.0020 C.ar      1 <0>        -0.1779
      7 N2          1.2508   -2.0592   -0.0214 N.2       1 <0>        -1.0637
      8 S1          2.7001   -2.8602   -0.0401 S.o2      1 <0>         2.6340
      9 O1          3.3099   -2.5674   -1.2898 O.2       1 <0>        -1.0200
     10 O2          3.3341   -2.5816    1.2007 O.2       1 <0>        -1.0200
     11 C6          2.3419   -4.5854   -0.0464 C.ar      1 <0>        -0.6415
     12 C7          2.2075   -5.2673    1.1486 C.ar      1 <0>         0.0049
     13 C8          1.9261   -6.6203    1.1449 C.ar      1 <0>        -0.1784
     14 C9          1.7787   -7.2929   -0.0564 C.ar      1 <0>         0.1383
     15 C10         1.9136   -6.6089   -1.2526 C.ar      1 <0>        -0.1784
     16 C11         2.1898   -5.2548   -1.2464 C.ar      1 <0>         0.0048
     17 F1          1.5041   -8.6157   -0.0612 F         1 <0>        -0.1358
     18 C12         3.6338    2.0272   -0.0222 C.1       1 <0>         0.0701
     19 C13         4.6614    2.5948   -0.0294 C.1       1 <0>        -0.3241
     20 C14         5.9499    3.3065   -0.0384 C.3       1 <0>         0.1564
     21 N3          7.0481    2.3309   -0.0540 N.4       1 <0>        -0.6385
     22 H1         -0.9527    1.9187    0.0259 H         1 <0>         0.1305
     23 H2          1.2096    3.1403    0.0070 H         1 <0>         0.1209
     24 H3         -0.9226   -0.5621    0.0082 H         1 <0>         0.1339
     25 H4          2.3228   -4.7425    2.0855 H         1 <0>         0.1465
     26 H5          1.8215   -7.1529    2.0786 H         1 <0>         0.1417
     27 H6          1.7992   -7.1326   -2.1902 H         1 <0>         0.1417
     28 H7          2.2906   -4.7201   -2.1793 H         1 <0>         0.1466
     29 H8          6.0109    3.9364   -0.9258 H         1 <0>         0.1468
     30 H9          6.0282    3.9274    0.8540 H         1 <0>         0.1468
     31 H10         7.9313    2.8187   -0.0601 H         1 <0>         0.4376
     32 H11         6.9916    1.7478    0.7675 H         1 <0>         0.4400
     33 H12         6.9756    1.7561   -0.8801 H         1 <0>         0.4400
@<TRIPOS>BOND
     1    1    6 ar
     2    1    2 ar
     3    1   22 1
     4    2    3 ar
     5    2   23 1
     6    3    4 ar
     7    3   18 1
     8    4    5 ar
     9    5    6 ar
    10    5    7 1
    11    6   24 1
    12    7    8 1
    13    8    9 2
    14    8   10 2
    15    8   11 1
    16   11   16 ar
    17   11   12 ar
    18   12   13 ar
    19   12   25 1
    20   13   14 ar
    21   13   26 1
    22   14   15 ar
    23   14   17 1
    24   15   16 ar
    25   15   27 1
    26   16   28 1
    27   18   19 3
    28   19   20 1
    29   20   21 1
    30   20   29 1
    31   20   30 1
    32   21   31 1
    33   21   32 1
    34   21   33 1
@<TRIPOS>MOLECULE
ZINC44491202
   37    38     0     0     0
SMALL
USER_CHARGES

@<TRIPOS>ATOM
      1 C1          0.0337    1.5626    0.0115 C.3       1 <0>        -0.1648
      2 C2          0.0255    0.0327    0.0011 C.3       1 <0>         0.1344
      3 H1          0.5298   -0.3293   -0.8949 H         1 <0>         0.1052
      4 C3         -1.4203   -0.4733    0.0164 C.3       1 <0>        -0.1296
      5 C4         -2.0814   -0.0767    1.3385 C.3       1 <0>        -0.1030
      6 C5         -1.3296   -0.7273    2.5020 C.3       1 <0>        -0.1246
      7 H2         -1.3371   -1.8104    2.3797 H         1 <0>         0.1050
      8 C6          0.1173   -0.2242    2.5148 C.3       1 <0>         0.1142
      9 N1          0.7188   -0.4718    1.1943 N.am      1 <0>        -0.5988
     10 C7          1.8786   -1.1487    1.0798 C.2       1 <0>         0.5734
     11 O1          2.3069   -1.4393   -0.0205 O.2       1 <0>        -0.5229
     12 C8          2.6282   -1.5371    2.2892 C.ar      1 <0>        -0.1449
     13 C9          2.9738   -0.5741    3.2409 C.ar      1 <0>        -0.0693
     14 C10         3.6735   -0.9428    4.3686 C.ar      1 <0>        -0.1038
     15 C11         4.0372   -2.2666    4.5644 C.ar      1 <0>        -0.0568
     16 C12         3.7021   -3.2284    3.6308 C.ar      1 <0>        -0.1208
     17 C13         2.9928   -2.8751    2.4929 C.ar      1 <0>         0.1648
     18 O2          2.6582   -3.8192    1.5781 O.3       1 <0>        -0.4862
     19 Br1         4.9977   -2.7579    6.1174 Br        1 <0>        -0.0310
     20 C14        -2.0010   -0.3631    3.8010 C.2       1 <0>         0.5243
     21 O3         -2.9842    0.3471    3.7973 O.2       1 <0>        -0.5331
     22 N2         -1.5089   -0.8264    4.9671 N.am      1 <0>        -0.8548
     23 H3          1.0633    1.9205    0.0057 H         1 <0>         0.0593
     24 H4         -0.4854    1.9348   -0.8717 H         1 <0>         0.0732
     25 H5         -0.4710    1.9225    0.9081 H         1 <0>         0.0626
     26 H6         -1.9702   -0.0286   -0.8131 H         1 <0>         0.0847
     27 H7         -1.4270   -1.5588   -0.0824 H         1 <0>         0.0704
     28 H8         -2.0522    1.0074    1.4482 H         1 <0>         0.0778
     29 H9         -3.1178   -0.4141    1.3418 H         1 <0>         0.0776
     30 H10         0.1306    0.8448    2.7273 H         1 <0>         0.0805
     31 H11         0.6829   -0.7577    3.2787 H         1 <0>         0.0905
     32 H12         2.6929    0.4581    3.0924 H         1 <0>         0.1425
     33 H13         3.9404   -0.1977    5.1034 H         1 <0>         0.1446
     34 H14         3.9889   -4.2574    3.7897 H         1 <0>         0.1481
     35 H15         3.3222   -3.9504    0.8874 H         1 <0>         0.4055
     36 H16        -0.7226   -1.3944    4.9701 H         1 <0>         0.4011
     37 H17        -1.9411   -0.5920    5.8032 H         1 <0>         0.4045
@<TRIPOS>BOND
     1    1    2 1
     2    1   23 1
     3    1   24 1
     4    1   25 1
     5    2    3 1
     6    2    9 1
     7    2    4 1
     8    4    5 1
     9    4   26 1
    10    4   27 1
    11    5    6 1
    12    5   28 1
    13    5   29 1
    14    6    7 1
    15    6    8 1
    16    6   20 1
    17    8    9 1
    18    8   30 1
    19    8   31 1
    20    9   10 am
    21   10   11 2
    22   10   12 1
    23   12   17 ar
    24   12   13 ar
    25   13   14 ar
    26   13   32 1
    27   14   15 ar
    28   14   33 1
    29   15   16 ar
    30   15   19 1
    31   16   17 ar
    32   16   34 1
    33   17   18 1
    34   18   35 1
    35   20   21 2
    36   20   22 am
    37   22   36 1
    38   22   37 1
@<TRIPOS>MOLECULE
ZINC57933618
   30    31     0     0     0
SMALL
USER_CHARGES

@<TRIPOS>ATOM
      1 C1         -0.0167    1.3804    0.0096 C.ar      1 <0>        -0.1240
      2 C2          1.1749    2.0829    0.0020 C.ar      1 <0>         0.1847
      3 C3          2.3927    1.4007   -0.0159 C.ar      1 <0>         0.1222
      4 C4          2.4035    0.0154   -0.0207 C.ar      1 <0>        -0.1059
      5 C5          1.2090   -0.6831   -0.0120 C.ar      1 <0>        -0.0387
      6 C6          0.0021   -0.0041    0.0020 C.ar      1 <0>        -0.0144
      7 Cl1        -1.4905   -0.8906    0.0106 Cl        1 <0>        -0.0406
      8 Cl2         1.2233   -2.4190   -0.0192 Cl        1 <0>        -0.0427
      9 N1          3.5905    2.1262   -0.0350 N.am      1 <0>        -0.5364
     10 C7          3.6016    3.4423    0.2493 C.2       1 <0>         0.5117
     11 O1          4.6431    4.0608    0.1846 O.2       1 <0>        -0.5083
     12 C8          2.3349    4.1562    0.6466 C.3       1 <0>         0.1174
     13 N2          1.1885    3.4854    0.0157 N.pl3     1 <0>        -0.7473
     14 C9          4.8447    1.4459   -0.3674 C.3       1 <0>         0.0713
     15 C10         5.0757    1.5118   -1.8784 C.3       1 <0>         0.0936
     16 H1          4.2086    1.1024   -2.3967 H         1 <0>         0.1073
     17 C11         6.3184    0.6959   -2.2404 C.3       1 <0>         0.0467
     18 O2          6.4679    0.6607   -3.6611 O.3       1 <0>        -0.5613
     19 O3          5.2676    2.8720   -2.2721 O.3       1 <0>        -0.5417
     20 H2         -0.9580    1.9097    0.0260 H         1 <0>         0.1515
     21 H3          3.3424   -0.5184   -0.0309 H         1 <0>         0.1485
     22 H4          2.2239    4.1260    1.7305 H         1 <0>         0.0956
     23 H5          2.3802    5.1927    0.3121 H         1 <0>         0.1229
     24 H6          0.4647    3.9966   -0.3789 H         1 <0>         0.4172
     25 H7          5.6711    1.9352    0.1481 H         1 <0>         0.1022
     26 H8          4.7869    0.4036   -0.0538 H         1 <0>         0.0986
     27 H9          7.1989    1.1576   -1.7937 H         1 <0>         0.0529
     28 H10         6.2090   -0.3202   -1.8613 H         1 <0>         0.0571
     29 H11         7.2374    0.1591   -3.9634 H         1 <0>         0.3826
     30 H12         6.0238    3.3010   -1.8489 H         1 <0>         0.3775
@<TRIPOS>BOND
     1    1    6 ar
     2    1    2 ar
     3    1   20 1
     4    2   13 1
     5    2    3 ar
     6    3    4 ar
     7    3    9 1
     8    4    5 ar
     9    4   21 1
    10    5    6 ar
    11    5    8 1
    12    6    7 1
    13    9   10 am
    14    9   14 1
    15   10   11 2
    16   10   12 1
    17   12   13 1
    18   12   22 1
    19   12   23 1
    20   13   24 1
    21   14   15 1
    22   14   25 1
    23   14   26 1
    24   15   16 1
    25   15   17 1
    26   15   19 1
    27   17   18 1
    28   17   27 1
    29   17   28 1
    30   18   29 1
    31   19   30 1
@<TRIPOS>MOLECULE
ZINC11033791
   32    32     0     0     0
SMALL
USER_CHARGES
N-carbamoyl-2-[(3-chloro-2-pyridyl)sulfanyl]-3-methyl-butanamide
@<TRIPOS>ATOM
      1 C1          1.8767    6.2611   -2.4631 C.3       1 <0>        -0.1600
      2 C2          2.4741    5.4664   -1.3002 C.3       1 <0>        -0.0843
      3 C3          3.9887    5.6792   -1.2618 C.3       1 <0>        -0.1558
      4 C4          1.8581    5.9467    0.0154 C.3       1 <0>        -0.1098
      5 H1          2.3466    5.4440    0.8502 H         1 <0>         0.1248
      6 C5          2.0483    7.4360    0.1450 C.2       1 <0>         0.5437
      7 O1          1.1365    8.1890   -0.1220 O.2       1 <0>        -0.4432
      8 N1          3.2321    7.9308    0.5576 N.am      1 <0>        -0.6857
      9 C6          3.4023    9.2627    0.6735 C.2       1 <0>         0.6963
     10 O2          2.4881   10.0177    0.4058 O.2       1 <0>        -0.5285
     11 N2          4.5861    9.7575    1.0861 N.am      1 <0>        -0.8556
     12 S1          0.0859    5.5599    0.0300 S.3       1 <0>         0.0412
     13 C7          0.0339    3.7987    0.0217 C.ar      1 <0>         0.1122
     14 C8         -1.1958    3.1441    0.0294 C.ar      1 <0>        -0.0746
     15 C9         -1.2211    1.7609    0.0174 C.ar      1 <0>        -0.0461
     16 C10        -0.0126    1.0758    0.0080 C.ar      1 <0>        -0.1666
     17 C11         1.1691    1.7888    0.0005 C.ar      1 <0>         0.1190
     18 N3          1.1641    3.1086    0.0076 N.ar      1 <0>        -0.4786
     19 Cl1        -2.6757    4.0513    0.0473 Cl        1 <0>        -0.0335
     20 H2          2.0914    7.3211   -2.3270 H         1 <0>         0.0561
     21 H3          2.3156    5.9190   -3.4004 H         1 <0>         0.0636
     22 H4          0.7977    6.1095   -2.4905 H         1 <0>         0.0717
     23 H5          2.2594    4.4064   -1.4363 H         1 <0>         0.1053
     24 H6          4.4276    5.3370   -2.1991 H         1 <0>         0.0697
     25 H7          4.2034    6.7391   -1.1257 H         1 <0>         0.0545
     26 H8          4.4143    5.1129   -0.4333 H         1 <0>         0.0633
     27 H9          3.9617    7.3283    0.7712 H         1 <0>         0.4117
     28 H10         5.3156    9.1550    1.2997 H         1 <0>         0.4003
     29 H11         4.7085   10.7161    1.1695 H         1 <0>         0.4223
     30 H12        -2.1592    1.2257    0.0189 H         1 <0>         0.1513
     31 H13         0.0021   -0.0041    0.0020 H         1 <0>         0.1480
     32 H14         2.1105    1.2597   -0.0110 H         1 <0>         0.1674
@<TRIPOS>BOND
     1    1    2 1
     2    1   20 1
     3    1   21 1
     4    1   22 1
     5    2    3 1
     6    2    4 1
     7    2   23 1
     8    3   24 1
     9    3   25 1
    10    3   26 1
    11    4    5 1
    12    4    6 1
    13    4   12 1
    14    6    7 2
    15    6    8 am
    16    8    9 am
    17    8   27 1
    18    9   10 2
    19    9   11 am
    20   11   28 1
    21   11   29 1
    22   12   13 1
    23   13   18 ar
    24   13   14 ar
    25   14   15 ar
    26   14   19 1
    27   15   16 ar
    28   15   30 1
    29   16   17 ar
    30   16   31 1
    31   17   18 ar
    32   17   32 1
@<TRIPOS>MOLECULE
ZINC38054371
   28    29     0     0     0
SMALL
USER_CHARGES

@<TRIPOS>ATOM
      1 C1         -0.0436    1.3285    0.0314 C.ar      1 <0>        -0.0235
      2 C2          1.1062    2.0786    0.1879 C.ar      1 <0>        -0.1427
      3 C3          2.3480    1.4624    0.1518 C.ar      1 <0>         0.2210
      4 C4          2.4307    0.0776   -0.0434 C.ar      1 <0>        -0.0516
      5 C5          1.2628   -0.6679   -0.1996 C.ar      1 <0>         0.0008
      6 C6          0.0349   -0.0398   -0.1617 C.ar      1 <0>        -0.1942
      7 C7         -1.2263   -0.8471   -0.3312 C.3       1 <0>         0.5131
      8 F1         -2.3364    0.0010   -0.2567 F         1 <0>        -0.1733
      9 F2         -1.2086   -1.4838   -1.5768 F         1 <0>        -0.1724
     10 F3         -1.3047   -1.8080    0.6826 F         1 <0>        -0.1709
     11 C8          3.7498   -0.5900   -0.0841 C.2       1 <0>         0.4300
     12 N1          4.0173   -1.5537    0.7484 N.2       1 <0>        -0.4130
     13 O1          5.2803   -2.1928    0.7095 O.3       1 <0>        -0.4189
     14 N2          4.7003   -0.1894   -1.0081 N.pl3     1 <0>        -0.8415
     15 N3          3.5130    2.2203    0.3092 N.pl3     1 <0>        -0.3323
     16 C9          3.5820    3.5750    0.3903 C.2       1 <0>         0.0954
     17 C10         4.8849    3.9104    0.5388 C.2       1 <0>        -0.2223
     18 C11         5.6361    2.7293    0.5491 C.2       1 <0>         0.0893
     19 N4          4.8163    1.7179    0.4176 N.2       1 <0>        -0.2470
     20 Br1         5.5697    5.6653    0.7032 Br        1 <0>        -0.0011
     21 H1         -1.0088    1.8118    0.0642 H         1 <0>         0.1580
     22 H2          1.0378    3.1459    0.3382 H         1 <0>         0.1522
     23 H3          1.3194   -1.7358   -0.3508 H         1 <0>         0.1532
     24 H4          5.3859   -2.8955    1.3653 H         1 <0>         0.4000
     25 H5          4.5009    0.5289   -1.6287 H         1 <0>         0.3906
     26 H6          5.5655   -0.6272   -1.0348 H         1 <0>         0.4088
     27 H7          2.7483    4.2599    0.3445 H         1 <0>         0.1925
     28 H8          6.7091    2.6636    0.6527 H         1 <0>         0.1998
@<TRIPOS>BOND
     1    1    6 ar
     2    1    2 ar
     3    1   21 1
     4    2    3 ar
     5    2   22 1
     6    3    4 ar
     7    3   15 1
     8    4    5 ar
     9    4   11 1
    10    5    6 ar
    11    5   23 1
    12    6    7 1
    13    7    8 1
    14    7    9 1
    15    7   10 1
    16   11   12 2
    17   11   14 1
    18   12   13 1
    19   13   24 1
    20   14   25 1
    21   14   26 1
    22   15   19 1
    23   15   16 1
    24   16   17 2
    25   16   27 1
    26   17   18 1
    27   17   20 1
    28   18   19 2
    29   18   28 1
@<TRIPOS>MOLECULE
ZINC44748562
   44    45     0     0     0
SMALL
USER_CHARGES

@<TRIPOS>ATOM
      1 C1         -0.8985    1.6568    0.2239 C.3       1 <0>        -0.1224
      2 C2         -0.7388    0.1616    0.1240 C.ar      1 <0>         0.0323
      3 C3         -0.9995   -0.4811   -1.0648 C.ar      1 <0>        -0.2158
      4 C4         -0.8528   -1.8622   -1.1578 C.ar      1 <0>         0.2506
      5 C5         -0.4419   -2.5978   -0.0493 C.ar      1 <0>        -0.2150
      6 C6         -0.1797   -1.9611    1.1419 C.ar      1 <0>        -0.0273
      7 C7         -0.3202   -0.5733    1.2369 C.ar      1 <0>        -0.2079
      8 C8         -0.0341    0.1132    2.5109 C.2       1 <0>         0.5707
      9 O1         -0.0526    1.3278    2.5645 O.2       1 <0>        -0.5386
     10 N1          0.2478   -0.6060    3.6153 N.am      1 <0>        -0.7171
     11 C9          0.5319    0.0757    4.8806 C.3       1 <0>         0.1266
     12 H1         -0.0798    0.9749    4.9542 H         1 <0>         0.1126
     13 C10         2.0119    0.4603    4.9315 C.3       1 <0>        -0.1585
     14 C11         0.2122   -0.8449    6.0300 C.2       1 <0>         0.5153
     15 O2          0.1921   -2.0453    5.8581 O.2       1 <0>        -0.5367
     16 N2         -0.0513   -0.3342    7.2492 N.am      1 <0>        -0.6061
     17 C12        -0.0996    1.1194    7.4575 C.3       1 <0>         0.0989
     18 C13        -1.4360    1.4793    8.1141 C.3       1 <0>        -0.1373
     19 C14        -1.6103    0.6551    9.3918 C.3       1 <0>        -0.1216
     20 C15        -1.6301   -0.8345    9.0413 C.3       1 <0>        -0.1359
     21 C16        -0.3018   -1.2206    8.3939 C.3       1 <0>         0.1095
     22 N3         -1.1174   -2.5086   -2.3601 N.pl3     1 <0>        -0.8677
     23 H2          0.0708    2.1358    0.0854 H         1 <0>         0.0770
     24 H3         -1.5874    2.0010   -0.5474 H         1 <0>         0.0565
     25 H4         -1.2943    1.9150    1.2062 H         1 <0>         0.0955
     26 H5         -1.3187    0.0867   -1.9263 H         1 <0>         0.1271
     27 H6         -0.3293   -3.6693   -0.1245 H         1 <0>         0.1265
     28 H7          0.1386   -2.5323    2.0015 H         1 <0>         0.1256
     29 H8          0.2625   -1.5749    3.5725 H         1 <0>         0.4082
     30 H9          2.6237   -0.4270    4.7686 H         1 <0>         0.0665
     31 H10         2.2234    1.1950    4.1546 H         1 <0>         0.0782
     32 H11         2.2431    0.8868    5.9076 H         1 <0>         0.0706
     33 H12         0.7206    1.4227    8.1081 H         1 <0>         0.0761
     34 H13        -0.0151    1.6291    6.4977 H         1 <0>         0.0900
     35 H14        -1.4455    2.5407    8.3618 H         1 <0>         0.0798
     36 H15        -2.2511    1.2587    7.4249 H         1 <0>         0.0683
     37 H16        -0.7817    0.8576   10.0704 H         1 <0>         0.0661
     38 H17        -2.5492    0.9271    9.8742 H         1 <0>         0.0679
     39 H18        -1.7776   -1.4198    9.9489 H         1 <0>         0.0778
     40 H19        -2.4433   -1.0333    8.3433 H         1 <0>         0.0667
     41 H20        -0.3507   -2.2544    8.0517 H         1 <0>         0.0938
     42 H21         0.5015   -1.1123    9.1225 H         1 <0>         0.0700
     43 H22        -1.4040   -1.9971   -3.1329 H         1 <0>         0.4016
     44 H23        -1.0154   -3.4710   -2.4261 H         1 <0>         0.4015
@<TRIPOS>BOND
     1    1    2 1
     2    1   23 1
     3    1   24 1
     4    1   25 1
     5    2    7 ar
     6    2    3 ar
     7    3    4 ar
     8    3   26 1
     9    4    5 ar
    10    4   22 1
    11    5    6 ar
    12    5   27 1
    13    6    7 ar
    14    6   28 1
    15    7    8 1
    16    8    9 2
    17    8   10 am
    18   10   11 1
    19   10   29 1
    20   11   12 1
    21   11   13 1
    22   11   14 1
    23   13   30 1
    24   13   31 1
    25   13   32 1
    26   14   15 2
    27   14   16 am
    28   16   21 1
    29   16   17 1
    30   17   18 1
    31   17   33 1
    32   17   34 1
    33   18   19 1
    34   18   35 1
    35   18   36 1
    36   19   20 1
    37   19   37 1
    38   19   38 1
    39   20   21 1
    40   20   39 1
    41   20   40 1
    42   21   41 1
    43   21   42 1
    44   22   43 1
    45   22   44 1
@<TRIPOS>MOLECULE
ZINC50393225
   39    41     0     0     0
SMALL
USER_CHARGES

@<TRIPOS>ATOM
      1 C1         -0.8669   -0.0585    1.9017 C.ar      1 <0>        -0.1166
      2 C2          0.2137    0.5492    2.5155 C.ar      1 <0>        -0.0779
      3 C3          1.4784    0.0362    2.3266 C.ar      1 <0>        -0.0950
      4 C4          1.6759   -1.0835    1.5178 C.ar      1 <0>        -0.0403
      5 C5          0.6001   -1.6844    0.8913 C.ar      1 <0>        -0.0791
      6 C6         -0.6746   -1.1632    1.1010 C.ar      1 <0>        -0.0717
      7 C7          0.7005   -2.8622   -0.0323 C.3       1 <0>         0.0199
      8 C8          1.9359   -3.7148    0.1973 C.3       1 <0>        -0.1256
      9 C9          3.1884   -2.8608   -0.0480 C.3       1 <0>        -0.1220
     10 S1          3.3223   -1.6945    1.3392 S.3       1 <0>        -0.0986
     11 C10        -0.5212   -3.7248    0.1529 C.2       1 <0>         0.5032
     12 O1         -1.1922   -4.0469   -0.8128 O.co2     1 <0>        -0.6661
     13 O2         -0.8387   -4.1007    1.2685 O.co2     1 <0>        -0.6150
     14 N1          0.7188   -2.3725   -1.4171 N.4       1 <0>        -0.4693
     15 C11        -0.4908   -1.5789   -1.6719 C.3       1 <0>         0.0155
     16 H1         -1.2343   -1.7956   -0.9049 H         1 <0>         0.1771
     17 C12        -1.0574   -1.9427   -3.0466 C.3       1 <0>        -0.1392
     18 C13        -2.1430   -0.9221   -3.4090 C.3       1 <0>        -0.1325
     19 C14        -1.4815    0.4389   -3.6292 C.3       1 <0>         0.0976
     20 N2         -0.6168    0.7739   -2.5047 N.am      1 <0>        -0.7004
     21 C15        -0.1460   -0.1177   -1.6337 C.2       1 <0>         0.4974
     22 O3          0.6002    0.2733   -0.7613 O.2       1 <0>        -0.5083
     23 H2         -1.8628    0.3308    2.0538 H         1 <0>         0.1252
     24 H3          0.0671    1.4195    3.1380 H         1 <0>         0.1298
     25 H4          2.3239    0.5048    2.8082 H         1 <0>         0.1281
     26 H5         -1.5251   -1.6319    0.6285 H         1 <0>         0.1208
     27 H6          1.9401   -4.0815    1.2238 H         1 <0>         0.1261
     28 H7          1.9295   -4.5589   -0.4923 H         1 <0>         0.1025
     29 H8          4.0716   -3.4986   -0.0835 H         1 <0>         0.1331
     30 H9          3.0867   -2.3132   -0.9849 H         1 <0>         0.0749
     31 H10         1.5351   -1.7966   -1.5594 H         1 <0>         0.4052
     32 H11        -0.2619   -1.9123   -3.7911 H         1 <0>         0.0823
     33 H12        -1.4904   -2.9424   -3.0121 H         1 <0>         0.1212
     34 H13        -2.6488   -1.2350   -4.3224 H         1 <0>         0.1053
     35 H14        -2.8642   -0.8507   -2.5948 H         1 <0>         0.0846
     36 H15        -0.8882    0.4075   -4.5431 H         1 <0>         0.0767
     37 H16        -2.2529    1.2023   -3.7303 H         1 <0>         0.0901
     38 H17        -0.3675    1.7035   -2.3841 H         1 <0>         0.4123
     39 H18         0.7461   -3.1571   -2.0510 H         1 <0>         0.4287
@<TRIPOS>BOND
     1    1    6 ar
     2    1    2 ar
     3    1   23 1
     4    2    3 ar
     5    2   24 1
     6    3    4 ar
     7    3   25 1
     8    4   10 1
     9    4    5 ar
    10    5    6 ar
    11    5    7 1
    12    6   26 1
    13    7    8 1
    14    7   11 1
    15    7   14 1
    16    8    9 1
    17    8   27 1
    18    8   28 1
    19    9   10 1
    20    9   29 1
    21    9   30 1
    22   11   12 2
    23   11   13 1
    24   14   15 1
    25   14   31 1
    26   14   39 1
    27   15   16 1
    28   15   21 1
    29   15   17 1
    30   17   18 1
    31   17   32 1
    32   17   33 1
    33   18   19 1
    34   18   34 1
    35   18   35 1
    36   19   20 1
    37   19   36 1
    38   19   37 1
    39   20   21 am
    40   20   38 1
    41   21   22 2
@<TRIPOS>MOLECULE
ZINC61123022
   28    29     0     0     0
SMALL
USER_CHARGES

@<TRIPOS>ATOM
      1 C1         -0.0168    1.3842    0.0097 C.ar      1 <0>        -0.0827
      2 C2          1.1776    2.0767    0.0020 C.ar      1 <0>         0.1275
      3 N1          2.3311    1.4363   -0.0125 N.ar      1 <0>        -0.4830
      4 C3          2.3908    0.1134   -0.0206 C.ar      1 <0>         0.4379
      5 C4          1.2265   -0.6477   -0.0140 C.ar      1 <0>        -0.0942
      6 C5          0.0021   -0.0041    0.0020 C.ar      1 <0>        -0.4706
      7 S1         -1.4998   -0.9254    0.0120 S.o2      1 <0>         2.5794
      8 O1         -1.1894   -2.2022    0.5529 O.2       1 <0>        -0.9923
      9 O2         -2.4916   -0.0792    0.5772 O.2       1 <0>        -0.9889
     10 N2         -1.9329   -1.1729   -1.5671 N.2       1 <0>        -1.0613
     11 C6         -3.0982   -1.8843   -1.8692 C.ar      1 <0>         0.2922
     12 C7         -3.8962   -2.3786   -0.8461 C.ar      1 <0>        -0.2847
     13 C8         -5.0490   -3.0818   -1.1469 C.ar      1 <0>         0.1748
     14 C9         -5.4080   -3.2936   -2.4674 C.ar      1 <0>        -0.2537
     15 C10        -4.6145   -2.8025   -3.4904 C.ar      1 <0>         0.1353
     16 C11        -3.4628   -2.0927   -3.1943 C.ar      1 <0>         0.0006
     17 F1         -2.6916   -1.6083   -4.1922 F         1 <0>        -0.1282
     18 F2         -4.9669   -3.0110   -4.7778 F         1 <0>        -0.1291
     19 F3         -5.8252   -3.5627   -0.1512 F         1 <0>        -0.1353
     20 N3          3.6279   -0.5202   -0.0363 N.pl3     1 <0>        -0.8209
     21 H1         -0.9561    1.9169    0.0259 H         1 <0>         0.1942
     22 H2          1.1676    3.1567    0.0075 H         1 <0>         0.2143
     23 H3          1.2778   -1.7264   -0.0214 H         1 <0>         0.1936
     24 H4         -3.6168   -2.2146    0.1842 H         1 <0>         0.1257
     25 H5         -6.3083   -3.8431   -2.6998 H         1 <0>         0.1456
     26 H6          4.4425    0.0064   -0.0412 H         1 <0>         0.4200
     27 H7          3.6766   -1.4890   -0.0422 H         1 <0>         0.4417
     28 H8          3.1557    1.9471   -0.0176 H         1 <0>         0.4418
@<TRIPOS>BOND
     1    1    6 ar
     2    1    2 ar
     3    1   21 1
     4    2    3 ar
     5    2   22 1
     6    3    4 ar
     7    3   28 1
     8    4    5 ar
     9    4   20 1
    10    5    6 ar
    11    5   23 1
    12    6    7 1
    13    7    8 2
    14    7    9 2
    15    7   10 1
    16   10   11 1
    17   11   16 ar
    18   11   12 ar
    19   12   13 ar
    20   12   24 1
    21   13   14 ar
    22   13   19 1
    23   14   15 ar
    24   14   25 1
    25   15   16 ar
    26   15   18 1
    27   16   17 1
    28   20   26 1
    29   20   27 1
@<TRIPOS>MOLECULE
ZINC07984548
   37    38     0     0     0
SMALL
USER_CHARGES
[4-(2,3,4,5,6-pentafluorophenyl)piperazin-1-yl]carbonylmethylurea
@<TRIPOS>ATOM
      1 C1         -0.7378    1.5839    1.2628 C.3       1 <0>         0.0360
      2 C2         -0.0127    1.0858    0.0080 C.3       1 <0>         0.1200
      3 N1         -0.7315    1.5767   -1.1776 N.am      1 <0>        -0.6121
      4 C3         -1.0428    3.0119   -1.2578 C.3       1 <0>         0.1103
      5 C4         -1.7317    3.4341    0.0443 C.3       1 <0>         0.0308
      6 N2         -0.8947    3.0430    1.1864 N.pl3     1 <0>        -0.4879
      7 C5         -1.4093    3.5556    2.3850 C.ar      1 <0>         0.0633
      8 C6         -2.6900    3.2082    2.7971 C.ar      1 <0>         0.0898
      9 C7         -3.1949    3.7115    3.9845 C.ar      1 <0>         0.0652
     10 C8         -2.4278    4.5703    4.7559 C.ar      1 <0>         0.0960
     11 C9         -1.1521    4.9221    4.3439 C.ar      1 <0>         0.0631
     12 C10        -0.6416    4.4162    3.1600 C.ar      1 <0>         0.1501
     13 F1          0.6018    4.7598    2.7585 F         1 <0>        -0.0870
     14 F2         -0.4058    5.7586    5.0979 F         1 <0>        -0.0955
     15 F3         -2.9240    5.0647    5.9111 F         1 <0>        -0.0932
     16 F4         -4.4378    3.3693    4.3885 F         1 <0>        -0.0982
     17 F5         -3.4403    2.3759    2.0424 F         1 <0>        -0.1005
     18 C11        -1.0947    0.7338   -2.1645 C.2       1 <0>         0.5153
     19 O1         -0.8294   -0.4467   -2.0820 O.2       1 <0>        -0.5326
     20 C12        -1.8306    1.2583   -3.3706 C.3       1 <0>         0.1200
     21 N3         -2.1096    0.1532   -4.2911 N.am      1 <0>        -0.7364
     22 C13        -2.7638    0.3870   -5.4459 C.2       1 <0>         0.7099
     23 O2         -3.1225    1.5151   -5.7238 O.2       1 <0>        -0.5947
     24 N4         -3.0204   -0.6296   -6.2928 N.am      1 <0>        -0.8636
     25 H1         -1.7212    1.1178    1.3237 H         1 <0>         0.0589
     26 H2         -0.1558    1.3232    2.1468 H         1 <0>         0.0994
     27 H3          0.0021   -0.0041    0.0020 H         1 <0>         0.1058
     28 H4          1.0089    1.4659    0.0003 H         1 <0>         0.0850
     29 H5         -0.1213    3.5799   -1.3854 H         1 <0>         0.0907
     30 H6         -1.7063    3.1960   -2.1028 H         1 <0>         0.1012
     31 H7         -1.8704    4.5153    0.0484 H         1 <0>         0.1009
     32 H8         -2.7015    2.9423    0.1187 H         1 <0>         0.0628
     33 H9         -2.7692    1.7132   -3.0540 H         1 <0>         0.0996
     34 H10        -1.2167    2.0048   -3.8745 H         1 <0>         0.1013
     35 H11        -1.8234   -0.7467   -4.0694 H         1 <0>         0.4089
     36 H12        -2.7343   -1.5295   -6.0711 H         1 <0>         0.3994
     37 H13        -3.4913   -0.4613   -7.1240 H         1 <0>         0.4180
@<TRIPOS>BOND
     1    1    6 1
     2    1    2 1
     3    1   25 1
     4    1   26 1
     5    2    3 1
     6    2   27 1
     7    2   28 1
     8    3    4 1
     9    3   18 am
    10    4    5 1
    11    4   29 1
    12    4   30 1
    13    5    6 1
    14    5   31 1
    15    5   32 1
    16    6    7 1
    17    7   12 ar
    18    7    8 ar
    19    8    9 ar
    20    8   17 1
    21    9   10 ar
    22    9   16 1
    23   10   11 ar
    24   10   15 1
    25   11   12 ar
    26   11   14 1
    27   12   13 1
    28   18   19 2
    29   18   20 1
    30   20   21 1
    31   20   33 1
    32   20   34 1
    33   21   22 am
    34   21   35 1
    35   22   23 2
    36   22   24 am
    37   24   36 1
    38   24   37 1
@<TRIPOS>MOLECULE
ZINC33512557
   36    38     0     0     0
SMALL
USER_CHARGES
2-(5-amino-2-oxo-1-pyridyl)-N-(3-cyano-5,6-dihydro-4H-cyclopenta[b]thiophen-2-yl)acetamide
@<TRIPOS>ATOM
      1 C1         -0.0164    1.3595    0.0095 C.2       1 <0>        -0.0511
      2 C2          0.0021   -0.0041    0.0020 C.2       1 <0>        -0.1999
      3 C3          1.2350   -0.6771   -0.0134 C.2       1 <0>         0.5082
      4 O1          1.2625   -1.8979   -0.0206 O.2       1 <0>        -0.5585
      5 N1          2.3864    0.0206   -0.0206 N.am      1 <0>        -0.4656
      6 C4          2.3759    1.3811   -0.0137 C.2       1 <0>         0.0058
      7 C5          1.2009    2.0633    0.0017 C.2       1 <0>         0.1302
      8 N2          1.2023    3.4664    0.0087 N.pl3     1 <0>        -0.9000
      9 C6          3.6655   -0.6934   -0.0367 C.3       1 <0>         0.0849
     10 C7          4.0905   -0.9306   -1.4629 C.2       1 <0>         0.4997
     11 O2          3.3936   -0.5415   -2.3761 O.2       1 <0>        -0.4822
     12 N3          5.2451   -1.5751   -1.7237 N.am      1 <0>        -0.6313
     13 C8          5.6366   -1.7935   -3.0373 C.2       1 <0>         0.0965
     14 C9          6.7775   -2.4239   -3.5008 C.2       1 <0>        -0.1212
     15 C10         6.9536   -2.5284   -4.9484 C.2       1 <0>        -0.0902
     16 C11         5.9696   -1.9794   -5.6844 C.2       1 <0>        -0.2356
     17 S1          4.8197   -1.3368   -4.4931 S.3       1 <0>         0.2829
     18 C12         6.2223   -2.1236   -7.1607 C.3       1 <0>        -0.0369
     19 C13         7.2987   -3.2265   -7.2654 C.3       1 <0>        -0.1121
     20 C14         8.0011   -3.1111   -5.8979 C.3       1 <0>        -0.0582
     21 C15         7.7494   -2.9585   -2.5950 C.1       1 <0>         0.2688
     22 N4          8.5203   -3.3826   -1.8765 N.1       1 <0>        -0.4260
     23 H1         -0.9555    1.8929    0.0169 H         1 <0>         0.1372
     24 H2         -0.9229   -0.5615    0.0075 H         1 <0>         0.1544
     25 H3          3.3097    1.9236   -0.0200 H         1 <0>         0.1520
     26 H4          2.1554    4.0155    0.0026 H         1 <0>         0.4163
     27 H5          0.2503    4.0173    0.0203 H         1 <0>         0.4201
     28 H6          4.4284   -0.0906    0.4778 H         1 <0>         0.1303
     29 H7          3.5529   -1.6591    0.4778 H         1 <0>         0.1395
     30 H8          5.8772   -1.9280   -0.8955 H         1 <0>         0.4502
     31 H9          5.2890   -2.4131   -7.6659 H         1 <0>         0.0808
     32 H10         6.5773   -1.1651   -7.5673 H         1 <0>         0.0862
     33 H11         6.8117   -4.2005   -7.4211 H         1 <0>         0.0794
     34 H12         7.9645   -3.0097   -8.1137 H         1 <0>         0.0861
     35 H13         8.8676   -2.4353   -5.9471 H         1 <0>         0.0843
     36 H14         8.3243   -4.0953   -5.5279 H         1 <0>         0.0750
@<TRIPOS>BOND
     1    1    7 1
     2    1    2 2
     3    1   23 1
     4    2    3 1
     5    2   24 1
     6    3    4 2
     7    3    5 am
     8    5    6 1
     9    5    9 1
    10    6    7 2
    11    6   25 1
    12    7    8 1
    13    8   26 1
    14    8   27 1
    15    9   10 1
    16    9   28 1
    17    9   29 1
    18   10   11 2
    19   10   12 am
    20   12   13 1
    21   12   30 1
    22   13   17 1
    23   13   14 2
    24   14   15 1
    25   14   21 1
    26   15   20 1
    27   15   16 2
    28   16   17 1
    29   16   18 1
    30   18   19 1
    31   18   31 1
    32   18   32 1
    33   19   20 1
    34   19   33 1
    35   19   34 1
    36   20   35 1
    37   20   36 1
    38   21   22 3
@<TRIPOS>MOLECULE
ZINC39545499
   41    44     0     0     0
SMALL
NO_CHARGES

@<TRIPOS>ATOM
      1 C1         -0.0167    1.3771    0.0096 C.ar      1 <0>        -0.1460
      2 C2          1.1671    2.0925    0.0022 C.ar      1 <0>        -0.0600
      3 C3          2.3748    1.4219   -0.0082 C.ar      1 <0>        -0.1589
      4 C4          2.3935    0.0345   -0.0149 C.ar      1 <0>         0.1898
      5 C5          1.2076   -0.6863   -0.0156 C.ar      1 <0>        -0.1856
      6 C6          0.0021   -0.0041    0.0020 C.ar      1 <0>        -0.0543
      7 C7          1.1941   -2.1918   -0.0485 C.3       1 <0>         0.0519
      8 N1          2.4562   -2.7409    0.4590 N.4       1 <0>        -0.3185
      9 C8          2.5646   -4.1684    0.1170 C.3       1 <0>         0.0565
     10 H1          1.7039   -4.4865   -0.4713 H         1 <0>         0.1735
     11 C9          3.8541   -4.2561   -0.7218 C.3       1 <0>        -0.0917
     12 C10         4.3413   -2.8269   -0.7990 C.2       1 <0>         0.1090
     13 C11         3.5210   -2.0510   -0.1370 C.2       1 <0>         0.1216
     14 N2          3.6218   -0.6479   -0.0133 N.pl3     1 <0>        -0.6589
     15 F1          5.4511   -2.4147   -1.4498 F         1 <0>        -0.0826
     16 C12         2.6861   -5.0028    1.3661 C.2       1 <0>         0.4471
     17 O1          2.6841   -4.4684    2.4550 O.2       1 <0>        -0.6070
     18 N3          2.7970   -6.3428    1.2732 N.am      1 <0>        -0.3178
     19 C13         2.9100   -7.1186    2.4346 C.ar      1 <0>         0.1394
     20 C14         1.7704   -7.5237    3.1140 C.ar      1 <0>        -0.0988
     21 C15         1.8843   -8.2892    4.2589 C.ar      1 <0>        -0.1217
     22 C16         3.1324   -8.6527    4.7303 C.ar      1 <0>        -0.1099
     23 C17         4.2726   -8.2528    4.0586 C.ar      1 <0>        -0.1413
     24 C18         4.1668   -7.4900    2.9068 C.ar      1 <0>         0.1100
     25 O2          5.2871   -7.1006    2.2419 O.3       1 <0>        -0.4845
     26 O3          2.7994   -6.9666    0.0020 O.3       1 <0>        -0.6382
     27 H2         -0.9608    1.9013    0.0260 H         1 <0>         0.1350
     28 H3          1.1473    3.1723    0.0041 H         1 <0>         0.1370
     29 H4          3.3019    1.9760   -0.0116 H         1 <0>         0.1359
     30 H5         -0.9271   -0.5545    0.0102 H         1 <0>         0.1380
     31 H6          0.3720   -2.5559    0.5677 H         1 <0>         0.1456
     32 H7          1.0457   -2.5260   -1.0754 H         1 <0>         0.1385
     33 H8          4.5920   -4.8845   -0.2232 H         1 <0>         0.1382
     34 H9          3.6359   -4.6394   -1.7186 H         1 <0>         0.1433
     35 H10         0.7944   -7.2405    2.7485 H         1 <0>         0.1238
     36 H11         0.9964   -8.6039    4.7870 H         1 <0>         0.1276
     37 H12         3.2167   -9.2505    5.6258 H         1 <0>         0.1279
     38 H13         5.2459   -8.5382    4.4296 H         1 <0>         0.1304
     39 H14         5.6452   -6.2524    2.5376 H         1 <0>         0.3796
     40 H15         4.4734   -0.1904    0.0663 H         1 <0>         0.4408
     41 H16         2.4976   -2.6302    1.4611 H         1 <0>         0.4352
@<TRIPOS>BOND
     1    1    6 ar
     2    1    2 ar
     3    1   27 1
     4    2    3 ar
     5    2   28 1
     6    3    4 ar
     7    3   29 1
     8    4   14 1
     9    4    5 ar
    10    5    6 ar
    11    5    7 1
    12    6   30 1
    13    7    8 1
    14    7   31 1
    15    7   32 1
    16    8   13 1
    17    8    9 1
    18    8   41 1
    19    9   10 1
    20    9   11 1
    21    9   16 1
    22   11   12 1
    23   11   33 1
    24   11   34 1
    25   12   13 2
    26   12   15 1
    27   13   14 1
    28   14   40 1
    29   16   17 2
    30   16   18 am
    31   18   19 1
    32   18   26 1
    33   19   24 ar
    34   19   20 ar
    35   20   21 ar
    36   20   35 1
    37   21   22 ar
    38   21   36 1
    39   22   23 ar
    40   22   37 1
    41   23   24 ar
    42   23   38 1
    43   24   25 1
    44   25   39 1
@<TRIPOS>MOLECULE
ZINC44884209
   41    42     0     0     0
SMALL
USER_CHARGES

@<TRIPOS>ATOM
      1 C1         -4.6508   -3.5553   -0.4552 C.3       1 <0>        -0.1603
      2 C2         -4.2022   -2.3761   -1.3207 C.3       1 <0>         0.1090
      3 C3         -5.4168   -1.5208   -1.6865 C.3       1 <0>        -0.1596
      4 N1         -3.2384   -1.5623   -0.5756 N.pl3     1 <0>        -0.3897
      5 C4         -3.5025   -0.8618    0.5597 C.2       1 <0>        -0.0531
      6 C5         -2.3665   -0.2326    0.9592 C.2       1 <0>         0.1199
      7 C6         -1.3559   -0.5507    0.0413 C.2       1 <0>        -0.1898
      8 C7         -1.9145   -1.3847   -0.9051 C.2       1 <0>        -0.0322
      9 C8         -1.2226   -1.9732   -2.0563 C.2       1 <0>         0.5975
     10 O1         -1.8475   -2.6197   -2.8765 O.2       1 <0>        -0.5408
     11 N2          0.1053   -1.7983   -2.2061 N.am      1 <0>        -0.7130
     12 C9          0.7775   -2.2894   -3.4116 C.3       1 <0>         0.1863
     13 C10         0.4961   -3.7844   -3.5545 C.3       1 <0>        -0.1394
     14 C11         1.6613   -4.4823   -4.3103 C.3       1 <0>        -0.5623
     15 S1          3.0928   -3.5854   -3.5643 S.o2      1 <0>         2.3670
     16 O2          4.1185   -3.4500   -4.5384 O.2       1 <0>        -0.9323
     17 O3          3.3957   -4.1584   -2.2997 O.2       1 <0>        -0.9259
     18 C12         2.2783   -1.9536   -3.3117 C.3       1 <0>        -0.5896
     19 C13         0.1930   -1.5657   -4.6263 C.3       1 <0>        -0.1696
     20 N3         -2.2291    0.5915    2.0917 N.pl3     1 <0>        -0.8795
     21 H1         -5.3678   -4.1608   -1.0096 H         1 <0>         0.0760
     22 H2         -3.7854   -4.1647   -0.1946 H         1 <0>         0.0622
     23 H3         -5.1187   -3.1806    0.4551 H         1 <0>         0.0612
     24 H4         -3.7342   -2.7509   -2.2310 H         1 <0>         0.1312
     25 H5         -5.8848   -1.1460   -0.7762 H         1 <0>         0.0615
     26 H6         -5.0972   -0.6807   -2.3031 H         1 <0>         0.0629
     27 H7         -6.1339   -2.1263   -2.2409 H         1 <0>         0.0765
     28 H8         -4.4580   -0.8132    1.0609 H         1 <0>         0.1617
     29 H9         -0.3315   -0.2103    0.0717 H         1 <0>         0.1404
     30 H10         0.6160   -1.3472   -1.5157 H         1 <0>         0.4075
     31 H11         0.3917   -4.2280   -2.5643 H         1 <0>         0.0917
     32 H12        -0.4304   -3.9254   -4.1110 H         1 <0>         0.1204
     33 H13         1.6991   -5.5481   -4.0851 H         1 <0>         0.1449
     34 H14         1.5991   -4.3077   -5.3844 H         1 <0>         0.1417
     35 H15         2.5688   -1.2533   -4.0949 H         1 <0>         0.1541
     36 H16         2.5181   -1.5522   -2.3270 H         1 <0>         0.1471
     37 H17         0.3657   -0.4939   -4.5285 H         1 <0>         0.0670
     38 H18         0.6754   -1.9301   -5.5332 H         1 <0>         0.0728
     39 H19        -0.8785   -1.7574   -4.6825 H         1 <0>         0.0846
     40 H20        -2.9914    0.7529    2.6695 H         1 <0>         0.3950
     41 H21        -1.3721    0.9982    2.2945 H         1 <0>         0.3971
@<TRIPOS>BOND
     1    1    2 1
     2    1   21 1
     3    1   22 1
     4    1   23 1
     5    2    3 1
     6    2    4 1
     7    2   24 1
     8    3   25 1
     9    3   26 1
    10    3   27 1
    11    4    8 1
    12    4    5 1
    13    5    6 2
    14    5   28 1
    15    6    7 1
    16    6   20 1
    17    7    8 2
    18    7   29 1
    19    8    9 1
    20    9   10 2
    21    9   11 am
    22   11   12 1
    23   11   30 1
    24   12   18 1
    25   12   13 1
    26   12   19 1
    27   13   14 1
    28   13   31 1
    29   13   32 1
    30   14   15 1
    31   14   33 1
    32   14   34 1
    33   15   16 2
    34   15   17 2
    35   15   18 1
    36   18   35 1
    37   18   36 1
    38   19   37 1
    39   19   38 1
    40   19   39 1
    41   20   40 1
    42   20   41 1
@<TRIPOS>MOLECULE
ZINC62874491
   48    49     0     0     0
SMALL
USER_CHARGES

@<TRIPOS>ATOM
      1 C1          3.0208    1.9401   -2.1319 C.3       1 <0>        -0.1449
      2 C2          2.1149    0.7379   -1.8580 C.3       1 <0>        -0.1188
      3 C3          2.7630   -0.5280   -2.4223 C.3       1 <0>        -0.0811
      4 C4          1.9057   -1.7434   -2.0631 C.3       1 <0>        -0.1377
      5 C5          2.6249   -3.0223   -2.4982 C.3       1 <0>        -0.0921
      6 C6          3.9884   -3.1029   -1.8078 C.3       1 <0>        -0.1387
      7 C7          3.7855   -3.1546   -0.2902 C.3       1 <0>         0.1473
      8 N1          2.9699   -2.0026    0.1174 N.am      1 <0>        -0.6678
      9 C8          1.6793   -1.7797   -0.5485 C.3       1 <0>         0.1522
     10 C9          3.3973   -1.1663    1.0841 C.2       1 <0>         0.7335
     11 O1          4.4683   -0.6022    0.9702 O.2       1 <0>        -0.5526
     12 N2          2.6375   -0.9554    2.1771 N.am      1 <0>        -0.6327
     13 C10         1.2567   -1.4541    2.2365 C.3       1 <0>         0.0941
     14 C11         0.3264   -0.2890    2.5883 C.3       1 <0>        -0.1617
     15 C12         0.8114    0.3740    3.8796 C.3       1 <0>         0.0282
     16 C13         2.2225    0.9285    3.6715 C.3       1 <0>        -0.1589
     17 C14         3.1762   -0.2277    3.3343 C.3       1 <0>         0.1292
     18 N3         -0.0976    1.4709    4.2378 N.4       1 <0>        -0.6360
     19 C15         0.5773   -1.6479   -2.7681 C.2       1 <0>         0.5030
     20 O2          0.3379   -0.6958   -3.4912 O.co2     1 <0>        -0.6822
     21 O3         -0.2582   -2.5227   -2.6155 O.co2     1 <0>        -0.6962
     22 H1          3.9877    1.7828   -1.6539 H         1 <0>         0.0437
     23 H2          3.1610    2.0519   -3.2071 H         1 <0>         0.0527
     24 H3          2.5591    2.8419   -1.7299 H         1 <0>         0.0394
     25 H4          1.9748    0.6260   -0.7829 H         1 <0>         0.0305
     26 H5          1.1481    0.8951   -2.3360 H         1 <0>         0.0878
     27 H6          2.8393   -0.4449   -3.5064 H         1 <0>         0.0582
     28 H7          3.7591   -0.6472   -1.9961 H         1 <0>         0.0487
     29 H8          2.0251   -3.8888   -2.2198 H         1 <0>         0.0649
     30 H9          2.7653   -3.0102   -3.5790 H         1 <0>         0.0584
     31 H10         4.5098   -4.0021   -2.1360 H         1 <0>         0.0673
     32 H11         4.5795   -2.2243   -2.0661 H         1 <0>         0.0705
     33 H12         3.2733   -4.0784   -0.0213 H         1 <0>         0.0615
     34 H13         4.7534   -3.1123    0.2094 H         1 <0>         0.0707
     35 H14         1.2574   -0.8301   -0.2192 H         1 <0>         0.0672
     36 H15         0.9953   -2.5914   -0.3006 H         1 <0>         0.0662
     37 H16         0.9753   -1.8668    1.2678 H         1 <0>         0.1251
     38 H17         1.1799   -2.2268    3.0015 H         1 <0>         0.0778
     39 H18         0.3356    0.4411    1.7789 H         1 <0>         0.0943
     40 H19        -0.6876   -0.6630    2.7299 H         1 <0>         0.1025
     41 H20         0.8255   -0.3627    4.6828 H         1 <0>         0.1432
     42 H21         2.2138    1.6470    2.8519 H         1 <0>         0.0933
     43 H22         2.5581    1.4210    4.5841 H         1 <0>         0.0977
     44 H23         3.2527   -0.9024    4.1869 H         1 <0>         0.0771
     45 H24         4.1616    0.1690    3.0900 H         1 <0>         0.1114
     46 H25        -1.0279    1.1053    4.3761 H         1 <0>         0.4357
     47 H26         0.2220    1.9081    5.0892 H         1 <0>         0.4336
     48 H27        -0.1114    2.1528    3.4942 H         1 <0>         0.4344
@<TRIPOS>BOND
     1    1    2 1
     2    1   22 1
     3    1   23 1
     4    1   24 1
     5    2    3 1
     6    2   25 1
     7    2   26 1
     8    3    4 1
     9    3   27 1
    10    3   28 1
    11    4    9 1
    12    4    5 1
    13    4   19 1
    14    5    6 1
    15    5   29 1
    16    5   30 1
    17    6    7 1
    18    6   31 1
    19    6   32 1
    20    7    8 1
    21    7   33 1
    22    7   34 1
    23    8    9 1
    24    8   10 am
    25    9   35 1
    26    9   36 1
    27   10   11 2
    28   10   12 am
    29   12   17 1
    30   12   13 1
    31   13   14 1
    32   13   37 1
    33   13   38 1
    34   14   15 1
    35   14   39 1
    36   14   40 1
    37   15   16 1
    38   15   18 1
    39   15   41 1
    40   16   17 1
    41   16   42 1
    42   16   43 1
    43   17   44 1
    44   17   45 1
    45   18   46 1
    46   18   47 1
    47   18   48 1
    48   19   20 2
    49   19   21 1
@<TRIPOS>MOLECULE
ZINC12313107
   52    55     0     0     0
SMALL
USER_CHARGES
N-[2-(4-chlorophenyl)-4,6-dihydrothieno[3,4-d]pyrazol-3-yl]-N'-(2-morpholinoethyl)oxamide
@<TRIPOS>ATOM
      1 C1          1.4318    0.9903   -0.7417 C.ar      1 <0>        -0.1249
      2 C2          2.6134    0.9505   -0.0278 C.ar      1 <0>        -0.0827
      3 C3          2.8637    1.8959    0.9514 C.ar      1 <0>        -0.0310
      4 C4          1.9337    2.8866    1.2137 C.ar      1 <0>        -0.0842
      5 C5          0.7530    2.9338    0.4989 C.ar      1 <0>        -0.0854
      6 C6          0.4995    1.9864   -0.4840 C.ar      1 <0>         0.1439
      7 N1         -0.6981    2.0321   -1.2109 N.pl3     1 <0>        -0.3136
      8 C7         -0.8352    1.8090   -2.5420 C.2       1 <0>         0.3188
      9 C8         -2.1696    1.9509   -2.8520 C.2       1 <0>        -0.2288
     10 C9         -2.8445    2.2649   -1.6848 C.2       1 <0>         0.0789
     11 N2         -1.9640    2.3149   -0.6952 N.2       1 <0>        -0.2407
     12 C10        -4.3543    2.4690   -1.7978 C.3       1 <0>         0.0145
     13 S1         -4.7132    1.7251   -3.4431 S.3       1 <0>        -0.2570
     14 C11        -3.0081    1.8430   -4.1239 C.3       1 <0>         0.0336
     15 N3          0.1867    1.4936   -3.4323 N.am      1 <0>        -0.6197
     16 C12         0.0694    1.8182   -4.7352 C.2       1 <0>         0.5138
     17 O1         -0.8794    2.4735   -5.1144 O.2       1 <0>        -0.4699
     18 C13         1.1065    1.3717   -5.7120 C.2       1 <0>         0.5272
     19 O2          2.0552    0.7165   -5.3328 O.2       1 <0>        -0.4936
     20 N4          0.9893    1.6962   -7.0148 N.am      1 <0>        -0.7013
     21 C14         2.0069    1.2581   -7.9733 C.3       1 <0>         0.0932
     22 C15         1.6377    1.7558   -9.3722 C.3       1 <0>        -0.0180
     23 C16         3.9485    1.9685  -10.0666 C.3       1 <0>        -0.0464
     24 C17         4.9948    1.4388  -11.0507 C.3       1 <0>         0.0352
     25 O3          4.5409    1.6635  -12.3882 O.3       1 <0>        -0.3553
     26 C18         3.2869    1.0420  -12.6826 C.3       1 <0>         0.0342
     27 C19         2.2233    1.5677  -11.7151 C.3       1 <0>        -0.0376
     28 Cl1         4.3464    1.8387    1.8524 Cl        1 <0>        -0.0465
     29 H1          1.2348    0.2494   -1.5024 H         1 <0>         0.1336
     30 H2          3.3405    0.1781   -0.2304 H         1 <0>         0.1503
     31 H3          2.1313    3.6233    1.9783 H         1 <0>         0.1511
     32 H4          0.0272    3.7067    0.7045 H         1 <0>         0.1485
     33 H5         -4.8802    1.9358   -1.0058 H         1 <0>         0.1262
     34 H6         -4.6065    3.5294   -1.7853 H         1 <0>         0.1213
     35 H7         -2.8957    2.7339   -4.7419 H         1 <0>         0.1177
     36 H8         -2.7498    0.9457   -4.6863 H         1 <0>         0.0970
     37 H9          0.9835    1.0402   -3.1153 H         1 <0>         0.4261
     38 H10         0.2311    2.2199   -7.3178 H         1 <0>         0.4237
     39 H11         2.9759    1.6665   -7.6864 H         1 <0>         0.0972
     40 H12         2.0580    0.1693   -7.9767 H         1 <0>         0.0986
     41 H13         0.6686    1.3475   -9.6591 H         1 <0>         0.1434
     42 H14         1.5866    2.8446   -9.3688 H         1 <0>         0.1436
     43 H15         3.8443    3.0463  -10.1913 H         1 <0>         0.1440
     44 H16         4.2637    1.7482   -9.0467 H         1 <0>         0.1425
     45 H17         5.1380    0.3703  -10.8896 H         1 <0>         0.0831
     46 H18         5.9388    1.9608  -10.8942 H         1 <0>         0.1436
     47 H19         3.3804   -0.0380  -12.5690 H         1 <0>         0.0827
     48 H20         2.9957    1.2770  -13.7064 H         1 <0>         0.1440
     49 H21         1.2791    1.0548  -11.8984 H         1 <0>         0.1440
     50 H22         2.0915    2.6391  -11.8661 H         1 <0>         0.1431
     51 N5          2.6627    1.2898  -10.3312 N.4       1 <0>        -0.3925
     52 H23         2.7898    0.2773  -10.2179 H         1 <0>         0.4302
@<TRIPOS>BOND
     1    1    6 ar
     2    1    2 ar
     3    1   29 1
     4    2    3 ar
     5    2   30 1
     6    3    4 ar
     7    3   28 1
     8    4    5 ar
     9    4   31 1
    10    5    6 ar
    11    5   32 1
    12    6    7 1
    13    7   11 1
    14    7    8 1
    15    8    9 2
    16    8   15 1
    17    9   14 1
    18    9   10 1
    19   10   11 2
    20   10   12 1
    21   12   13 1
    22   12   33 1
    23   12   34 1
    24   13   14 1
    25   14   35 1
    26   14   36 1
    27   15   16 am
    28   15   37 1
    29   16   17 2
    30   16   18 1
    31   18   19 2
    32   18   20 am
    33   20   21 1
    34   20   38 1
    35   21   22 1
    36   21   39 1
    37   21   40 1
    38   22   41 1
    39   22   42 1
    40   22   51 1
    41   23   24 1
    42   23   43 1
    43   23   44 1
    44   23   51 1
    45   24   25 1
    46   24   45 1
    47   24   46 1
    48   25   26 1
    49   26   27 1
    50   26   47 1
    51   26   48 1
    52   27   49 1
    53   27   50 1
    54   27   51 1
    55   51   52 1
@<TRIPOS>MOLECULE
ZINC39602444
   66    71     0     0     0
SMALL
USER_CHARGES

@<TRIPOS>ATOM
      1 C1          0.3169   -2.3511    2.0141 C.ar      1 <0>        -0.1161
      2 C2          1.5410   -2.8662    2.3975 C.ar      1 <0>        -0.1147
      3 C3          2.4175   -3.3484    1.4435 C.ar      1 <0>        -0.1100
      4 C4          2.0696   -3.3158    0.1060 C.ar      1 <0>        -0.0647
      5 C5          0.8451   -2.8015   -0.2774 C.ar      1 <0>        -0.1196
      6 C6         -0.0307   -2.3180    0.6766 C.ar      1 <0>        -0.1147
      7 C7          3.0255   -3.8405   -0.9342 C.3       1 <0>        -0.1102
      8 H1          3.7331   -4.5928   -0.5855 H         1 <0>         0.1169
      9 C8          2.5085   -3.9680   -2.3685 C.3       1 <0>        -0.1813
     10 C9          3.5057   -2.8635   -2.0093 C.3       1 <0>         0.0862
     11 H2          3.1301   -1.8412   -1.9642 H         1 <0>         0.1437
     12 N1          4.8811   -3.0110   -2.4917 N.am      1 <0>        -0.6999
     13 C10         5.5273   -1.9525   -3.0194 C.2       1 <0>         0.5247
     14 O1          4.9702   -0.8779   -3.0948 O.2       1 <0>        -0.5127
     15 C11         6.9421   -2.1042   -3.5156 C.3       1 <0>        -0.1131
     16 H3          7.4925   -2.8012   -2.8837 H         1 <0>         0.1159
     17 C12         7.6512   -0.7317   -3.5474 C.3       1 <0>         0.1175
     18 N2          8.4959   -0.7748   -4.7642 N.am      1 <0>        -0.6221
     19 C13         7.6585   -1.4713   -5.7700 C.3       1 <0>         0.0945
     20 C14         6.9485   -2.5860   -4.9761 C.3       1 <0>        -0.0719
     21 C15         7.7225   -3.8952   -5.0973 C.3       1 <0>        -0.1370
     22 C16         7.6666   -4.3832   -6.5476 C.3       1 <0>        -0.0116
     23 N3          6.2675   -4.5798   -6.9460 N.4       1 <0>        -0.5048
     24 C17         5.5530   -3.2980   -6.9154 C.3       1 <0>        -0.0079
     25 C18         5.5198   -2.7639   -5.4806 C.3       1 <0>        -0.1490
     26 C19         9.7437   -0.2902   -4.9211 C.2       1 <0>         0.5461
     27 O2         10.3368    0.1767   -3.9718 O.2       1 <0>        -0.4815
     28 C20        10.4021   -0.3286   -6.2761 C.3       1 <0>         0.0426
     29 H4         10.3646   -1.3425   -6.6744 H         1 <0>         0.1035
     30 C21         9.6772    0.6295   -7.2310 C.3       1 <0>         0.0333
     31 O3         10.3352    0.5791   -8.5016 O.3       1 <0>        -0.2997
     32 C22        11.6945    0.6474   -8.4893 C.ar      1 <0>         0.0398
     33 C23        12.3706    0.9663   -9.6577 C.ar      1 <0>        -0.1084
     34 C24        13.7508    1.0362   -9.6618 C.ar      1 <0>        -0.1095
     35 C25        14.4613    0.7889   -8.5019 C.ar      1 <0>        -0.1068
     36 C26        13.7938    0.4722   -7.3341 C.ar      1 <0>        -0.1067
     37 C27        12.4086    0.4014   -7.3228 C.ar      1 <0>         0.0473
     38 O4         11.7649    0.0956   -6.1629 O.3       1 <0>        -0.2781
     39 H5         -0.3697   -1.9785    2.7598 H         1 <0>         0.1256
     40 H6          1.8128   -2.8917    3.4425 H         1 <0>         0.1259
     41 H7          3.3742   -3.7502    1.7430 H         1 <0>         0.1213
     42 H8          0.5735   -2.7757   -1.3223 H         1 <0>         0.1220
     43 H9         -0.9872   -1.9158    0.3770 H         1 <0>         0.1254
     44 H10         2.8763   -4.8038   -2.9636 H         1 <0>         0.0992
     45 H11         1.4770   -3.6723   -2.5598 H         1 <0>         0.1115
     46 H12         5.3267   -3.8705   -2.4314 H         1 <0>         0.4008
     47 H13         6.9192    0.0725   -3.6213 H         1 <0>         0.1047
     48 H14         8.2701   -0.6031   -2.6595 H         1 <0>         0.1006
     49 H15         6.9288   -0.7845   -6.1988 H         1 <0>         0.0942
     50 H16         8.2831   -1.9018   -6.5527 H         1 <0>         0.0859
     51 H17         8.7607   -3.7323   -4.8079 H         1 <0>         0.1195
     52 H18         7.2752   -4.6442   -4.4438 H         1 <0>         0.0996
     53 H19         8.1286   -3.6410   -7.1986 H         1 <0>         0.1317
     54 H20         8.2048   -5.3271   -6.6342 H         1 <0>         0.1419
     55 H21         6.2353   -4.9591   -7.8804 H         1 <0>         0.4354
     56 H22         6.0649   -2.5815   -7.5578 H         1 <0>         0.1333
     57 H23         4.5334   -3.4420   -7.2729 H         1 <0>         0.1413
     58 H24         4.9934   -3.4721   -4.8408 H         1 <0>         0.1011
     59 H25         5.0050   -1.8033   -5.4618 H         1 <0>         0.1264
     60 H26         8.6379    0.3206   -7.3428 H         1 <0>         0.1211
     61 H27         9.7191    1.6443   -6.8354 H         1 <0>         0.0886
     62 H28        11.8179    1.1597  -10.5652 H         1 <0>         0.1380
     63 H29        14.2753    1.2849  -10.5726 H         1 <0>         0.1381
     64 H30        15.5399    0.8430   -8.5086 H         1 <0>         0.1387
     65 H31        14.3512    0.2794   -6.4294 H         1 <0>         0.1393
     66 H32         5.8252   -5.2251   -6.3087 H         1 <0>         0.4288
@<TRIPOS>BOND
     1    1    6 ar
     2    1    2 ar
     3    1   39 1
     4    2    3 ar
     5    2   40 1
     6    3    4 ar
     7    3   41 1
     8    4    5 ar
     9    4    7 1
    10    5    6 ar
    11    5   42 1
    12    6   43 1
    13    7    8 1
    14    7   10 1
    15    7    9 1
    16    9   10 1
    17    9   44 1
    18    9   45 1
    19   10   11 1
    20   10   12 1
    21   12   13 am
    22   12   46 1
    23   13   14 2
    24   13   15 1
    25   15   16 1
    26   15   20 1
    27   15   17 1
    28   17   18 1
    29   17   47 1
    30   17   48 1
    31   18   19 1
    32   18   26 am
    33   19   20 1
    34   19   49 1
    35   19   50 1
    36   20   25 1
    37   20   21 1
    38   21   22 1
    39   21   51 1
    40   21   52 1
    41   22   23 1
    42   22   53 1
    43   22   54 1
    44   23   24 1
    45   23   55 1
    46   23   66 1
    47   24   25 1
    48   24   56 1
    49   24   57 1
    50   25   58 1
    51   25   59 1
    52   26   27 2
    53   26   28 1
    54   28   29 1
    55   28   38 1
    56   28   30 1
    57   30   31 1
    58   30   60 1
    59   30   61 1
    60   31   32 1
    61   32   37 ar
    62   32   33 ar
    63   33   34 ar
    64   33   62 1
    65   34   35 ar
    66   34   63 1
    67   35   36 ar
    68   35   64 1
    69   36   37 ar
    70   36   65 1
    71   37   38 1
@<TRIPOS>MOLECULE
ZINC39662507
   69    72     0     0     0
SMALL
USER_CHARGES

@<TRIPOS>ATOM
      1 C1          0.0674   -0.3003    2.0679 C.3       1 <0>        -0.0707
      2 C2         -0.1985   -0.9959    0.7578 C.2       1 <0>         0.0228
      3 C3         -0.1441   -2.3732    0.5322 C.2       1 <0>        -0.1919
      4 C4         -0.4598   -2.5383   -0.8052 C.2       1 <0>        -0.0412
      5 N1         -0.6820   -1.2856   -1.3026 N.pl3     1 <0>        -0.2378
      6 N2         -0.5268   -0.4172   -0.3691 N.2       1 <0>        -0.2603
      7 C5         -1.0471   -0.9798   -2.6880 C.3       1 <0>         0.1747
      8 C6         -2.2999   -1.7699   -3.0716 C.3       1 <0>        -0.1711
      9 C7         -1.3277    0.5182   -2.8227 C.3       1 <0>        -0.1474
     10 C8          0.1051   -1.3683   -3.6167 C.3       1 <0>        -0.1645
     11 C9         -0.5394   -3.8088   -1.5437 C.2       1 <0>         0.6232
     12 O1         -0.6854   -3.8022   -2.7511 O.2       1 <0>        -0.5171
     13 N3         -0.4504   -4.9795   -0.8820 N.am      1 <0>        -0.6054
     14 C10        -0.4056   -5.1933    0.5837 C.3       1 <0>         0.0985
     15 C11        -1.2696   -6.4520    0.8213 C.3       1 <0>        -0.1131
     16 H1         -0.8354   -7.0671    1.6095 H         1 <0>         0.1234
     17 C12        -1.2444   -7.2041   -0.5199 C.3       1 <0>        -0.0727
     18 C13        -0.3819   -6.3449   -1.4560 C.3       1 <0>         0.1113
     19 C14        -0.6181   -8.5836   -0.3407 C.3       1 <0>        -0.1342
     20 C15        -0.6572   -9.3341   -1.6749 C.3       1 <0>        -0.0105
     21 N4         -2.0480   -9.4612   -2.1265 N.4       1 <0>        -0.5051
     22 C16        -2.6137   -8.1317   -2.3856 C.3       1 <0>        -0.0089
     23 C17        -2.6575   -7.3304   -1.0814 C.3       1 <0>        -0.1485
     24 C18        -2.6800   -6.0604    1.1795 C.2       1 <0>         0.5184
     25 O2         -3.1623   -5.0459    0.7224 O.2       1 <0>        -0.5007
     26 N5         -3.4054   -6.8376    2.0079 N.am      1 <0>        -0.7197
     27 C19        -4.8076   -6.5107    2.2786 C.3       1 <0>         0.2921
     28 H2         -4.9314   -5.4278    2.2955 H         1 <0>         0.1425
     29 C20        -5.6580   -7.0854    1.2234 C.1       1 <0>         0.1923
     30 N6         -6.3142   -7.5289    0.4091 N.1       1 <0>        -0.4019
     31 C21        -5.2081   -7.0830    3.6139 C.ar      1 <0>        -0.1132
     32 C22        -4.7611   -8.3355    3.9912 C.ar      1 <0>        -0.1072
     33 C23        -5.1285   -8.8605    5.2160 C.ar      1 <0>        -0.1139
     34 C24        -5.9426   -8.1328    6.0638 C.ar      1 <0>        -0.0996
     35 C25        -6.3889   -6.8799    5.6869 C.ar      1 <0>        -0.1094
     36 C26        -6.0180   -6.3532    4.4638 C.ar      1 <0>        -0.0916
     37 H3         -0.8626   -0.2163    2.6301 H         1 <0>         0.0752
     38 H4          0.7902   -0.8768    2.6453 H         1 <0>         0.0765
     39 H5          0.4672    0.6955    1.8761 H         1 <0>         0.0746
     40 H6          0.0940   -3.1452    1.2489 H         1 <0>         0.1628
     41 H7         -3.1653   -1.3499   -2.5591 H         1 <0>         0.0559
     42 H8         -2.4514   -1.7099   -4.1494 H         1 <0>         0.0791
     43 H9         -2.1754   -2.8127   -2.7797 H         1 <0>         0.0919
     44 H10        -0.4352    1.0811   -2.5494 H         1 <0>         0.0716
     45 H11        -1.5993    0.7457   -3.8535 H         1 <0>         0.0782
     46 H12        -2.1485    0.7950   -2.1611 H         1 <0>         0.0683
     47 H13         0.4195   -2.3889   -3.3982 H         1 <0>         0.0874
     48 H14        -0.2261   -1.3042   -4.6531 H         1 <0>         0.0795
     49 H15         0.9429   -0.6887   -3.4602 H         1 <0>         0.0581
     50 H16         0.6192   -5.3685    0.9110 H         1 <0>         0.0972
     51 H17        -0.8310   -4.3363    1.1059 H         1 <0>         0.1151
     52 H18        -0.7925   -6.3541   -2.4656 H         1 <0>         0.0918
     53 H19         0.6469   -6.7050   -1.4593 H         1 <0>         0.0899
     54 H20         0.4163   -8.4741   -0.0150 H         1 <0>         0.1250
     55 H21        -1.1786   -9.1432    0.4082 H         1 <0>         0.0985
     56 H22        -0.0829   -8.7821   -2.4189 H         1 <0>         0.1339
     57 H23        -0.2252  -10.3265   -1.5461 H         1 <0>         0.1414
     58 H24        -2.0765  -10.0083   -2.9738 H         1 <0>         0.4350
     59 H25        -1.9928   -7.6083   -3.1127 H         1 <0>         0.1366
     60 H26        -3.6241   -8.2376   -2.7807 H         1 <0>         0.1380
     61 H27        -3.2913   -7.8450   -0.3592 H         1 <0>         0.0908
     62 H28        -3.0611   -6.3371   -1.2779 H         1 <0>         0.1246
     63 H29        -2.9991   -7.6135    2.4249 H         1 <0>         0.4091
     64 H30        -4.1251   -8.9040    3.3289 H         1 <0>         0.1183
     65 H31        -4.7798   -9.8393    5.5105 H         1 <0>         0.1298
     66 H32        -6.2302   -8.5433    7.0204 H         1 <0>         0.1311
     67 H33        -7.0252   -6.3116    6.3491 H         1 <0>         0.1335
     68 H34        -6.3636   -5.3728    4.1710 H         1 <0>         0.1322
     69 H35        -2.5912   -9.9231   -1.4126 H         1 <0>         0.4274
@<TRIPOS>BOND
     1    1    2 1
     2    1   37 1
     3    1   38 1
     4    1   39 1
     5    2    6 2
     6    2    3 1
     7    3    4 2
     8    3   40 1
     9    4    5 1
    10    4   11 1
    11    5    6 1
    12    5    7 1
    13    7    8 1
    14    7    9 1
    15    7   10 1
    16    8   41 1
    17    8   42 1
    18    8   43 1
    19    9   44 1
    20    9   45 1
    21    9   46 1
    22   10   47 1
    23   10   48 1
    24   10   49 1
    25   11   12 2
    26   11   13 am
    27   13   18 1
    28   13   14 1
    29   14   15 1
    30   14   50 1
    31   14   51 1
    32   15   16 1
    33   15   17 1
    34   15   24 1
    35   17   23 1
    36   17   18 1
    37   17   19 1
    38   18   52 1
    39   18   53 1
    40   19   20 1
    41   19   54 1
    42   19   55 1
    43   20   21 1
    44   20   56 1
    45   20   57 1
    46   21   22 1
    47   21   58 1
    48   21   69 1
    49   22   23 1
    50   22   59 1
    51   22   60 1
    52   23   61 1
    53   23   62 1
    54   24   25 2
    55   24   26 am
    56   26   27 1
    57   26   63 1
    58   27   28 1
    59   27   29 1
    60   27   31 1
    61   29   30 3
    62   31   36 ar
    63   31   32 ar
    64   32   33 ar
    65   32   64 1
    66   33   34 ar
    67   33   65 1
    68   34   35 ar
    69   34   66 1
    70   35   36 ar
    71   35   67 1
    72   36   68 1
@<TRIPOS>MOLECULE
ZINC39677460
   71    75     0     0     0
SMALL
USER_CHARGES

@<TRIPOS>ATOM
      1 C1          0.7501   -0.7078   -1.0155 C.3       1 <0>        -0.1496
      2 C2         -0.0697    0.0186    0.0527 C.3       1 <0>        -0.0733
      3 C3          0.4904   -0.3118    1.4376 C.3       1 <0>        -0.0954
      4 C4         -0.3294    0.4146    2.5059 C.3       1 <0>        -0.1298
      5 C5         -0.2502    1.9243    2.2706 C.3       1 <0>        -0.1231
      6 C6         -0.8104    2.2546    0.8856 C.3       1 <0>        -0.1207
      7 C7          0.0094    1.5283   -0.1826 C.3       1 <0>        -0.1180
      8 C8         -1.5069   -0.4277   -0.0274 C.2       1 <0>         0.5571
      9 O1         -1.9898   -1.0818    0.8725 O.2       1 <0>        -0.5246
     10 N1         -2.2556   -0.0998   -1.0990 N.am      1 <0>        -0.6212
     11 C9         -1.8195    0.5939   -2.3338 C.3       1 <0>         0.1018
     12 C10        -2.5787   -0.1226   -3.4730 C.3       1 <0>        -0.1150
     13 H1         -1.9568   -0.9032   -3.9113 H         1 <0>         0.1100
     14 C11        -3.8132   -0.7395   -2.7945 C.3       1 <0>        -0.0703
     15 C12        -3.7000   -0.3575   -1.3116 C.3       1 <0>         0.1065
     16 C13        -3.7955   -2.2576   -2.9448 C.3       1 <0>        -0.1341
     17 C14        -5.0612   -2.8432   -2.3122 C.3       1 <0>        -0.0108
     18 N2         -6.2455   -2.2798   -2.9717 N.4       1 <0>        -0.5046
     19 C15        -6.3042   -0.8310   -2.7436 C.3       1 <0>        -0.0078
     20 C16        -5.0909   -0.1603   -3.3941 C.3       1 <0>        -0.1469
     21 C17        -2.9973    0.8680   -4.5287 C.2       1 <0>         0.5191
     22 O2         -3.2935    2.0011   -4.2137 O.2       1 <0>        -0.5208
     23 N3         -3.0425    0.4947   -5.8230 N.am      1 <0>        -0.7224
     24 C18        -3.4495    1.4577   -6.8493 C.3       1 <0>         0.1658
     25 C19        -3.4162    0.7943   -8.2020 C.ar      1 <0>        -0.1166
     26 C20        -2.2576    0.8222   -8.9559 C.ar      1 <0>        -0.0920
     27 C21        -2.2236    0.2161  -10.1974 C.ar      1 <0>        -0.1122
     28 C22        -3.3520   -0.4222  -10.6902 C.ar      1 <0>         0.0661
     29 C23        -4.5159   -0.4524   -9.9314 C.ar      1 <0>         0.0483
     30 C24        -4.5420    0.1543   -8.6843 C.ar      1 <0>        -0.0967
     31 O3         -5.6321   -1.0800  -10.3926 O.3       1 <0>        -0.3089
     32 C25        -5.6808   -1.3575  -11.7964 C.3       1 <0>         0.0195
     33 C26        -4.3332   -1.9616  -12.2139 C.3       1 <0>         0.0195
     34 O4         -3.3045   -1.0111  -11.9164 O.3       1 <0>        -0.3034
     35 H2          1.7540   -0.2849   -1.0531 H         1 <0>         0.0758
     36 H3          0.8114   -1.7676   -0.7683 H         1 <0>         0.0650
     37 H4          0.2690   -0.5884   -1.9863 H         1 <0>         0.0609
     38 H5          0.4340   -1.3873    1.6053 H         1 <0>         0.0704
     39 H6          1.5299    0.0110    1.4956 H         1 <0>         0.0733
     40 H7         -1.3689    0.0919    2.4480 H         1 <0>         0.0782
     41 H8          0.0697    0.1793    3.4926 H         1 <0>         0.0646
     42 H9         -0.8343    2.4418    3.0316 H         1 <0>         0.0631
     43 H10         0.7893    2.2470    2.3285 H         1 <0>         0.0644
     44 H11        -1.8499    1.9319    0.8277 H         1 <0>         0.0555
     45 H12        -0.7540    3.3302    0.7180 H         1 <0>         0.0684
     46 H13         1.0490    1.8510   -0.1247 H         1 <0>         0.0799
     47 H14        -0.3896    1.7636   -1.1693 H         1 <0>         0.0709
     48 H15        -2.0969    1.6473   -2.2961 H         1 <0>         0.0999
     49 H16        -0.7431    0.4881   -2.4692 H         1 <0>         0.1030
     50 H17        -4.0365   -1.1804   -0.6809 H         1 <0>         0.0882
     51 H18        -4.2810    0.5418   -1.1073 H         1 <0>         0.0829
     52 H19        -3.7634   -2.5182   -4.0027 H         1 <0>         0.0957
     53 H20        -2.9169   -2.6627   -2.4427 H         1 <0>         0.1177
     54 H21        -5.0595   -3.9265   -2.4326 H         1 <0>         0.1391
     55 H22        -5.0845   -2.5960   -1.2509 H         1 <0>         0.1341
     56 H23        -6.1950   -2.4611   -3.9630 H         1 <0>         0.4275
     57 H24        -7.2185   -0.4311   -3.1820 H         1 <0>         0.1390
     58 H25        -6.2982   -0.6315   -1.6721 H         1 <0>         0.1331
     59 H26        -5.1257    0.9133   -3.2088 H         1 <0>         0.1284
     60 H27        -5.1052   -0.3454   -4.4682 H         1 <0>         0.0957
     61 H28        -2.8056   -0.4115   -6.0749 H         1 <0>         0.4025
     62 H29        -4.4610    1.8058   -6.6401 H         1 <0>         0.0807
     63 H30        -2.7648    2.3058   -6.8436 H         1 <0>         0.0855
     64 H31        -1.3778    1.3187   -8.5741 H         1 <0>         0.1363
     65 H32        -1.3175    0.2398  -10.7846 H         1 <0>         0.1410
     66 H33        -5.4444    0.1301   -8.0915 H         1 <0>         0.1323
     67 H34        -6.4816   -2.0675  -12.0031 H         1 <0>         0.1271
     68 H35        -5.8562   -0.4338  -12.3478 H         1 <0>         0.0823
     69 H36        -4.1549   -2.8821  -11.6581 H         1 <0>         0.0801
     70 H37        -4.3405   -2.1727  -13.2833 H         1 <0>         0.1282
     71 H38        -7.0759   -2.7121   -2.5953 H         1 <0>         0.4339
@<TRIPOS>BOND
     1    1    2 1
     2    1   35 1
     3    1   36 1
     4    1   37 1
     5    2    7 1
     6    2    3 1
     7    2    8 1
     8    3    4 1
     9    3   38 1
    10    3   39 1
    11    4    5 1
    12    4   40 1
    13    4   41 1
    14    5    6 1
    15    5   42 1
    16    5   43 1
    17    6    7 1
    18    6   44 1
    19    6   45 1
    20    7   46 1
    21    7   47 1
    22    8    9 2
    23    8   10 am
    24   10   15 1
    25   10   11 1
    26   11   12 1
    27   11   48 1
    28   11   49 1
    29   12   13 1
    30   12   14 1
    31   12   21 1
    32   14   20 1
    33   14   15 1
    34   14   16 1
    35   15   50 1
    36   15   51 1
    37   16   17 1
    38   16   52 1
    39   16   53 1
    40   17   18 1
    41   17   54 1
    42   17   55 1
    43   18   19 1
    44   18   56 1
    45   18   71 1
    46   19   20 1
    47   19   57 1
    48   19   58 1
    49   20   59 1
    50   20   60 1
    51   21   22 2
    52   21   23 am
    53   23   24 1
    54   23   61 1
    55   24   25 1
    56   24   62 1
    57   24   63 1
    58   25   30 ar
    59   25   26 ar
    60   26   27 ar
    61   26   64 1
    62   27   28 ar
    63   27   65 1
    64   28   34 1
    65   28   29 ar
    66   29   30 ar
    67   29   31 1
    68   30   66 1
    69   31   32 1
    70   32   33 1
    71   32   67 1
    72   32   68 1
    73   33   34 1
    74   33   69 1
    75   33   70 1
@<TRIPOS>MOLECULE
ZINC46918846
   58    60     0     0     0
SMALL
USER_CHARGES

@<TRIPOS>ATOM
      1 C1         -0.0170    1.3768    0.0295 C.ar      1 <0>        -0.1155
      2 C2          1.1009    1.9398    0.6178 C.ar      1 <0>        -0.0659
      3 C3          2.3076    1.2689    0.5935 C.ar      1 <0>        -0.1164
      4 C4          2.3978    0.0271   -0.0222 C.ar      1 <0>         0.1709
      5 C5          1.2735   -0.5356   -0.6115 C.ar      1 <0>        -0.2000
      6 C6          0.0695    0.1409   -0.5842 C.ar      1 <0>        -0.0511
      7 C7          1.3669   -1.8827   -1.2806 C.3       1 <0>         0.5080
      8 F1          0.1149   -2.2353   -1.7957 F         1 <0>        -0.1644
      9 F2          2.2994   -1.8226   -2.3217 F         1 <0>        -0.1769
     10 F3          1.7731   -2.8407   -0.3455 F         1 <0>        -0.1783
     11 N1          3.6192   -0.6551   -0.0489 N.am      1 <0>        -0.6518
     12 C8          4.7731    0.0328   -0.1563 C.2       1 <0>         0.5085
     13 O1          4.7592    1.2456   -0.1474 O.2       1 <0>        -0.5029
     14 C9          6.0807   -0.7048   -0.2876 C.3       1 <0>        -0.0303
     15 N2          7.1811    0.2632   -0.3881 N.4       1 <0>        -0.3701
     16 C10         7.0357    1.0401   -1.6256 C.3       1 <0>        -0.0337
     17 C11         8.1156    2.1259   -1.6757 C.3       1 <0>         0.1136
     18 N3          9.4295    1.4848   -1.5120 N.am      1 <0>        -0.6452
     19 C12         9.6129    0.5579   -0.3845 C.3       1 <0>         0.0869
     20 C13         8.4624   -0.4539   -0.3954 C.3       1 <0>        -0.0208
     21 C14        10.4364    1.7391   -2.3710 C.2       1 <0>         0.7160
     22 O2         10.2955    2.5750   -3.2427 O.2       1 <0>        -0.5622
     23 N4         11.5996    1.0668   -2.2637 N.am      1 <0>        -0.7287
     24 C15        12.6528    1.2610   -3.2635 C.3       1 <0>         0.1199
     25 C16        13.8401    0.4005   -2.9159 C.2       1 <0>         0.5252
     26 O3         13.8097   -0.3054   -1.9302 O.2       1 <0>        -0.5436
     27 N5         14.9359    0.4155   -3.7005 N.am      1 <0>        -0.6114
     28 C17        15.1089    1.2251   -4.9154 C.3       1 <0>         0.0912
     29 C18        16.5025    0.8961   -5.4907 C.3       1 <0>        -0.1338
     30 C19        16.8088   -0.4984   -4.8834 C.3       1 <0>        -0.1354
     31 C20        16.1620   -0.3725   -3.4790 C.3       1 <0>         0.1035
     32 H1         -0.9606    1.9017    0.0533 H         1 <0>         0.1458
     33 H2          1.0301    2.9054    1.0963 H         1 <0>         0.1441
     34 H3          3.1804    1.7094    1.0525 H         1 <0>         0.1510
     35 H4         -0.8054   -0.2963   -1.0424 H         1 <0>         0.1504
     36 H5          3.6353   -1.6232    0.0099 H         1 <0>         0.4218
     37 H6          6.2311   -1.3363    0.5881 H         1 <0>         0.1690
     38 H7          6.0596   -1.3251   -1.1836 H         1 <0>         0.1666
     39 H8          7.1453    0.3785   -2.4850 H         1 <0>         0.1331
     40 H9          6.0505    1.5059   -1.6487 H         1 <0>         0.1598
     41 H10         8.0753    2.6385   -2.6368 H         1 <0>         0.1397
     42 H11         7.9538    2.8408   -0.8689 H         1 <0>         0.0978
     43 H12        10.5626    0.0338   -0.4920 H         1 <0>         0.1267
     44 H13         9.6024    1.1145    0.5526 H         1 <0>         0.1025
     45 H14         8.5285   -1.0890    0.4881 H         1 <0>         0.1495
     46 H15         8.5288   -1.0702   -1.2919 H         1 <0>         0.1390
     47 H16        11.7395    0.4544   -1.5246 H         1 <0>         0.4067
     48 H17        12.2762    0.9804   -4.2471 H         1 <0>         0.1034
     49 H18        12.9541    2.3085   -3.2750 H         1 <0>         0.1054
     50 H19        14.3380    0.9711   -5.6430 H         1 <0>         0.0757
     51 H20        15.0515    2.2847   -4.6661 H         1 <0>         0.0766
     52 H21        16.4680    0.8436   -6.5789 H         1 <0>         0.0890
     53 H22        17.2385    1.6299   -5.1621 H         1 <0>         0.0821
     54 H23        16.3367   -1.2902   -5.4651 H         1 <0>         0.0792
     55 H24        17.8834   -0.6623   -4.8034 H         1 <0>         0.0910
     56 H25        16.8312    0.1509   -2.7962 H         1 <0>         0.0751
     57 H26        15.9135   -1.3586   -3.0865 H         1 <0>         0.0824
     58 H27         7.1512    0.8879    0.4037 H         1 <0>         0.4314
@<TRIPOS>BOND
     1    1    6 ar
     2    1    2 ar
     3    1   32 1
     4    2    3 ar
     5    2   33 1
     6    3    4 ar
     7    3   34 1
     8    4    5 ar
     9    4   11 1
    10    5    6 ar
    11    5    7 1
    12    6   35 1
    13    7    8 1
    14    7    9 1
    15    7   10 1
    16   11   12 am
    17   11   36 1
    18   12   13 2
    19   12   14 1
    20   14   15 1
    21   14   37 1
    22   14   38 1
    23   15   20 1
    24   15   16 1
    25   15   58 1
    26   16   17 1
    27   16   39 1
    28   16   40 1
    29   17   18 1
    30   17   41 1
    31   17   42 1
    32   18   19 1
    33   18   21 am
    34   19   20 1
    35   19   43 1
    36   19   44 1
    37   20   45 1
    38   20   46 1
    39   21   22 2
    40   21   23 am
    41   23   24 1
    42   23   47 1
    43   24   25 1
    44   24   48 1
    45   24   49 1
    46   25   26 2
    47   25   27 am
    48   27   31 1
    49   27   28 1
    50   28   29 1
    51   28   50 1
    52   28   51 1
    53   29   30 1
    54   29   52 1
    55   29   53 1
    56   30   31 1
    57   30   54 1
    58   30   55 1
    59   31   56 1
    60   31   57 1
@<TRIPOS>MOLECULE
ZINC01899708
   53    57     0     0     0
SMALL
USER_CHARGES
4-[[amino-(p-tolylsulfonyl)BLAHyl]iminomethyl]benzene-1,2-diol
@<TRIPOS>ATOM
      1 C1         -3.9647   11.5158   -2.9344 C.3       1 <0>        -0.1258
      2 C2         -4.3675   10.0901   -2.6584 C.ar      1 <0>        -0.0293
      3 C3         -3.8958    9.0704   -3.4636 C.ar      1 <0>        -0.1429
      4 C4         -4.2649    7.7625   -3.2102 C.ar      1 <0>        -0.0225
      5 C5         -5.1053    7.4744   -2.1511 C.ar      1 <0>        -0.6656
      6 C6         -5.5812    8.4948   -1.3491 C.ar      1 <0>        -0.0087
      7 C7         -5.2090    9.8022   -1.6002 C.ar      1 <0>        -0.1413
      8 S1         -5.5757    5.8074   -1.8280 S.o2      1 <0>         2.6203
      9 O1         -5.4385    5.1018   -3.0538 O.2       1 <0>        -0.9550
     10 O2         -6.8032    5.8629   -1.1142 O.2       1 <0>        -0.9159
     11 C8         -4.3803    5.1337   -0.7226 C.2       1 <0>        -0.8138
     12 C9         -4.4445    5.1662    0.6917 C.ar      1 <0>         0.2080
     13 C10        -3.2330    4.4845    1.1663 C.ar      1 <0>         0.2865
     14 N1         -3.0188    4.3609    2.4566 N.ar      1 <0>        -0.4326
     15 C11        -3.9045    4.8576    3.3302 C.ar      1 <0>         0.0957
     16 C12        -3.6827    4.7299    4.7137 C.ar      1 <0>        -0.0845
     17 C13        -4.5875    5.2366    5.5944 C.ar      1 <0>        -0.0998
     18 C14        -5.7380    5.8842    5.1471 C.ar      1 <0>        -0.1003
     19 C15        -5.9875    6.0267    3.8176 C.ar      1 <0>        -0.0810
     20 C16        -5.0747    5.5157    2.8752 C.ar      1 <0>         0.0931
     21 N2         -5.3113    5.6513    1.5656 N.ar      1 <0>        -0.4064
     22 N3         -2.5398    4.0980    0.0364 N.pl3     1 <0>        -0.3633
     23 C17        -3.2380    4.4993   -1.0775 C.2       1 <0>         0.5584
     24 N4         -2.8310    4.2821   -2.3821 N.pl3     1 <0>        -0.8234
     25 N5         -1.3182    3.4123    0.0269 N.2       1 <0>        -0.2618
     26 C18        -1.3024    2.1146    0.0197 C.2       1 <0>         0.2039
     27 C19        -0.0169    1.3930    0.0097 C.ar      1 <0>        -0.0814
     28 C20         1.1856    2.1046    0.0020 C.ar      1 <0>        -0.0519
     29 C21         2.3869    1.4278   -0.0131 C.ar      1 <0>        -0.1390
     30 C22         2.4053    0.0405   -0.0202 C.ar      1 <0>         0.1194
     31 C23         1.2102   -0.6755   -0.0131 C.ar      1 <0>         0.0753
     32 C24         0.0021   -0.0041    0.0020 C.ar      1 <0>        -0.0823
     33 O3          1.2323   -2.0353   -0.0206 O.3       1 <0>        -0.4824
     34 O4          3.5923   -0.6217   -0.0347 O.3       1 <0>        -0.4851
     35 H1         -4.6820   11.9701   -3.6181 H         1 <0>         0.0805
     36 H2         -3.9485   12.0763   -1.9997 H         1 <0>         0.0731
     37 H3         -2.9725   11.5323   -3.3852 H         1 <0>         0.0724
     38 H4         -3.2386    9.2954   -4.2906 H         1 <0>         0.1328
     39 H5         -3.8963    6.9658   -3.8393 H         1 <0>         0.1363
     40 H6         -6.2414    8.2701   -0.5243 H         1 <0>         0.1458
     41 H7         -5.5779   10.5989   -0.9713 H         1 <0>         0.1339
     42 H8         -2.7959    4.2311    5.0759 H         1 <0>         0.1371
     43 H9         -4.4121    5.1353    6.6552 H         1 <0>         0.1360
     44 H10        -6.4412    6.2779    5.8661 H         1 <0>         0.1370
     45 H11        -6.8835    6.5302    3.4858 H         1 <0>         0.1436
     46 H12        -1.9988    3.8164   -2.5594 H         1 <0>         0.4141
     47 H13        -3.3779    4.5957   -3.1194 H         1 <0>         0.4386
     48 H14        -2.2311    1.5633    0.0211 H         1 <0>         0.1329
     49 H15         1.1742    3.1845    0.0076 H         1 <0>         0.1454
     50 H16         3.3156    1.9789   -0.0193 H         1 <0>         0.1441
     51 H17        -0.9250   -0.5580    0.0083 H         1 <0>         0.1445
     52 H18         1.2303   -2.4238   -0.9062 H         1 <0>         0.3917
     53 H19         3.9277   -0.8085   -0.9222 H         1 <0>         0.3955
@<TRIPOS>BOND
     1    1    2 1
     2    1   35 1
     3    1   36 1
     4    1   37 1
     5    2    7 ar
     6    2    3 ar
     7    3    4 ar
     8    3   38 1
     9    4    5 ar
    10    4   39 1
    11    5    6 ar
    12    5    8 1
    13    6    7 ar
    14    6   40 1
    15    7   41 1
    16    8    9 2
    17    8   10 2
    18    8   11 1
    19   11   23 2
    20   11   12 1
    21   12   21 ar
    22   12   13 ar
    23   13   14 ar
    24   13   22 1
    25   14   15 ar
    26   15   20 ar
    27   15   16 ar
    28   16   17 ar
    29   16   42 1
    30   17   18 ar
    31   17   43 1
    32   18   19 ar
    33   18   44 1
    34   19   20 ar
    35   19   45 1
    36   20   21 ar
    37   22   23 1
    38   22   25 1
    39   23   24 1
    40   24   46 1
    41   24   47 1
    42   25   26 2
    43   26   27 1
    44   26   48 1
    45   27   32 ar
    46   27   28 ar
    47   28   29 ar
    48   28   49 1
    49   29   30 ar
    50   29   50 1
    51   30   31 ar
    52   30   34 1
    53   31   32 ar
    54   31   33 1
    55   32   51 1
    56   33   52 1
    57   34   53 1
@<TRIPOS>MOLECULE
ZINC09407959
   46    49     0     0     0
SMALL
USER_CHARGES
9-(4-chlorophenyl)-2-(3-ethoxy-2-hydroxy-phenyl)-8-oxo-7H-purine-6-carboxamide
@<TRIPOS>ATOM
      1 C1         -0.7527    1.5927   -1.2315 C.3       1 <0>        -0.1529
      2 C2         -0.0127    1.0858    0.0080 C.3       1 <0>         0.0520
      3 O1         -0.6816    1.5467    1.1837 O.3       1 <0>        -0.3035
      4 C3         -0.1484    1.1818    2.3805 C.ar      1 <0>         0.0989
      5 C4          0.9933    0.3976    2.4205 C.ar      1 <0>        -0.1718
      6 C5          1.5402    0.0234    3.6353 C.ar      1 <0>        -0.0937
      7 C6          0.9538    0.4281    4.8166 C.ar      1 <0>        -0.0924
      8 C7         -0.1957    1.2171    4.7904 C.ar      1 <0>        -0.0392
      9 C8         -0.7455    1.6003    3.5644 C.ar      1 <0>         0.1283
     10 O2         -1.8620    2.3741    3.5293 O.3       1 <0>        -0.4622
     11 C9         -0.8280    1.6528    6.0581 C.ar      1 <0>         0.3787
     12 N1         -1.9153    2.4057    6.0049 N.ar      1 <0>        -0.4433
     13 C10        -2.5203    2.8164    7.1202 C.ar      1 <0>         0.1430
     14 C11        -1.9765    2.4444    8.3502 C.ar      1 <0>         0.0566
     15 C12        -0.8168    1.6483    8.3603 C.ar      1 <0>         0.3508
     16 N2         -0.2814    1.2792    7.2099 N.ar      1 <0>        -0.4763
     17 N3         -0.4975    1.4309    9.6892 N.am      1 <0>        -0.4596
     18 C13        -1.4103    2.0586   10.4551 C.2       1 <0>         0.6934
     19 O3         -1.4174    2.0655   11.6715 O.2       1 <0>        -0.5068
     20 N4         -2.3142    2.6780    9.6713 N.am      1 <0>        -0.6078
     21 H1         -3.0721    3.1986    9.9804 H         1 <0>         0.4551
     22 C14         0.5913    0.6831   10.1586 C.ar      1 <0>         0.1444
     23 C15         1.4588    0.0781    9.2592 C.ar      1 <0>        -0.1190
     24 C16         2.5336   -0.6542    9.7242 C.ar      1 <0>        -0.0866
     25 C17         2.7401   -0.7939   11.0853 C.ar      1 <0>        -0.0416
     26 C18         1.8738   -0.1963   11.9838 C.ar      1 <0>        -0.0862
     27 C19         0.8006    0.5414   11.5238 C.ar      1 <0>        -0.1199
     28 Cl1         4.0877   -1.7210   11.6667 Cl        1 <0>        -0.0611
     29 C20        -3.7403    3.6538    7.0547 C.2       1 <0>         0.5846
     30 O4         -4.2786    4.0243    8.0791 O.2       1 <0>        -0.5314
     31 N5         -4.2532    4.0047    5.8588 N.am      1 <0>        -0.8205
     32 H2         -1.7753    1.2154   -1.2238 H         1 <0>         0.0670
     33 H3         -0.7675    2.6825   -1.2255 H         1 <0>         0.0678
     34 H4         -0.2425    1.2411   -2.1283 H         1 <0>         0.0798
     35 H5          0.0021   -0.0041    0.0020 H         1 <0>         0.0633
     36 H6          1.0099    1.4631    0.0003 H         1 <0>         0.0637
     37 H7          1.4580    0.0769    1.4998 H         1 <0>         0.1368
     38 H8          2.4302   -0.5880    3.6587 H         1 <0>         0.1371
     39 H9          1.3849    0.1335    5.7620 H         1 <0>         0.1420
     40 H10        -2.6884    1.8720    3.5219 H         1 <0>         0.3862
     41 H11         1.2955    0.1832    8.1968 H         1 <0>         0.1600
     42 H12         3.2112   -1.1213    9.0249 H         1 <0>         0.1451
     43 H13         2.0368   -0.3070   13.0457 H         1 <0>         0.1451
     44 H14         0.1246    1.0074   12.2254 H         1 <0>         0.1657
     45 H15        -3.8235    3.7089    5.0410 H         1 <0>         0.4178
     46 H16        -5.0522    4.5531    5.8158 H         1 <0>         0.4126
@<TRIPOS>BOND
     1    1    2 1
     2    1   32 1
     3    1   33 1
     4    1   34 1
     5    2    3 1
     6    2   35 1
     7    2   36 1
     8    3    4 1
     9    4    9 ar
    10    4    5 ar
    11    5    6 ar
    12    5   37 1
    13    6    7 ar
    14    6   38 1
    15    7    8 ar
    16    7   39 1
    17    8    9 ar
    18    8   11 1
    19    9   10 1
    20   10   40 1
    21   11   16 ar
    22   11   12 ar
    23   12   13 ar
    24   13   14 ar
    25   13   29 1
    26   14   20 1
    27   14   15 ar
    28   15   16 ar
    29   15   17 1
    30   17   18 am
    31   17   22 1
    32   18   19 2
    33   18   20 am
    34   20   21 1
    35   22   27 ar
    36   22   23 ar
    37   23   24 ar
    38   23   41 1
    39   24   25 ar
    40   24   42 1
    41   25   26 ar
    42   25   28 1
    43   26   27 ar
    44   26   43 1
    45   27   44 1
    46   29   30 2
    47   29   31 am
    48   31   45 1
    49   31   46 1
@<TRIPOS>MOLECULE
ZINC32871352
   57    60     0     0     0
SMALL
USER_CHARGES
(2S)-N-(1-adamantylcarbamoyl)-2-[5-(2-amino-2-oxo-ethyl)-4-methyl-thiazol-2-yl]sulfanyl-propanamide
@<TRIPOS>ATOM
      1 C1          0.0428   -0.3751    2.4625 C.3       1 <0>        -0.0807
      2 C2          0.0293   -0.8734    1.0403 C.2       1 <0>         0.0812
      3 C3          0.0021   -0.0041    0.0020 C.2       1 <0>        -0.1801
      4 S1          0.0050   -1.1363   -1.3803 S.3       1 <0>         0.1241
      5 C4          0.0344   -2.6114   -0.4647 C.2       1 <0>         0.0285
      6 N1          0.0399   -2.1668    0.7782 N.2       1 <0>        -0.5032
      7 S2          0.0532   -4.2748   -1.0455 S.3       1 <0>         0.1269
      8 C5          0.0801   -5.1589    0.5336 C.3       1 <0>        -0.1198
      9 H1          0.8778   -4.9371    1.2578 H         1 <0>         0.1278
     10 C6         -1.2245   -4.8950    1.2881 C.3       1 <0>        -0.1486
     11 C7          0.2230   -6.6374    0.2792 C.2       1 <0>         0.5370
     12 O1         -0.0594   -7.0956   -0.8070 O.2       1 <0>        -0.4543
     13 N2          0.6647   -7.4502    1.2594 N.am      1 <0>        -0.7001
     14 C8          0.7925   -8.7725    1.0319 C.2       1 <0>         0.6993
     15 O2          0.5094   -9.2319   -0.0571 O.2       1 <0>        -0.5256
     16 N3          1.2342   -9.5853    2.0120 N.am      1 <0>        -0.7422
     17 C9          1.3731  -11.0226    1.7647 C.3       1 <0>         0.2049
     18 C10         0.0120  -11.6085    1.3840 C.3       1 <0>        -0.1249
     19 C11         0.1571  -13.1095    1.1258 C.3       1 <0>        -0.0823
     20 C12         0.6724  -13.7973    2.3916 C.3       1 <0>        -0.1121
     21 C13         2.0335  -13.2114    2.7723 C.3       1 <0>        -0.0803
     22 C14         1.8884  -11.7104    3.0305 C.3       1 <0>        -0.1133
     23 C15         3.0244  -13.4388    1.6289 C.3       1 <0>        -0.1122
     24 C16         2.5091  -12.7510    0.3631 C.3       1 <0>        -0.0824
     25 C17         1.1480  -13.3369   -0.0176 C.3       1 <0>        -0.1110
     26 C18         2.3641  -11.2499    0.6214 C.3       1 <0>        -0.1253
     27 C19        -0.0184    1.5028    0.0103 C.3       1 <0>        -0.0526
     28 C20         1.3954    2.0244   -0.0004 C.2       1 <0>         0.5163
     29 O3          2.3278    1.2489   -0.0135 O.2       1 <0>        -0.5370
     30 N4          1.6237    3.3527    0.0046 N.am      1 <0>        -0.8788
     31 H2          0.0309    0.7248    2.4657 H         1 <0>         0.0701
     32 H3          0.9517   -0.7334    2.9679 H         1 <0>         0.0764
     33 H4         -0.8443   -0.7530    2.9918 H         1 <0>         0.0754
     34 H5         -1.2081   -5.4323    2.2478 H         1 <0>         0.0708
     35 H6         -2.0744   -5.2472    0.6851 H         1 <0>         0.0710
     36 H7         -1.3288   -3.8158    1.4738 H         1 <0>         0.0940
     37 H8          0.9209   -7.0344    2.2450 H         1 <0>         0.4331
     38 H9          1.4904   -9.1695    2.9976 H         1 <0>         0.4150
     39 H10        -0.7004  -11.4450    2.2060 H         1 <0>         0.0588
     40 H11        -0.3585  -11.1140    0.4739 H         1 <0>         0.0869
     41 H12        -0.8215  -13.5307    0.8521 H         1 <0>         0.0725
     42 H13        -0.0400  -13.6339    3.2136 H         1 <0>         0.0625
     43 H14         0.7767  -14.8765    2.2060 H         1 <0>         0.0655
     44 H15         2.4040  -13.7058    3.6824 H         1 <0>         0.0758
     45 H16         2.8670  -11.2891    3.3042 H         1 <0>         0.0694
     46 H17         1.1760  -11.5469    3.8526 H         1 <0>         0.0693
     47 H18         4.0030  -13.0176    1.9026 H         1 <0>         0.0626
     48 H19         3.1287  -14.5180    1.4432 H         1 <0>         0.0655
     49 H20         3.2215  -12.9145   -0.4590 H         1 <0>         0.0726
     50 H21         1.2523  -14.4161   -0.2032 H         1 <0>         0.0632
     51 H22         0.7775  -12.8425   -0.9277 H         1 <0>         0.0657
     52 H23         1.9937  -10.7553   -0.2886 H         1 <0>         0.0870
     53 H24         3.3427  -10.8287    0.8952 H         1 <0>         0.0591
     54 H25        -0.5504    1.8672   -0.8809 H         1 <0>         0.1116
     55 H26        -0.5333    1.8575    0.9153 H         1 <0>         0.1203
     56 H27         2.6557    3.7334   -0.0032 H         1 <0>         0.4253
     57 H28         0.7780    4.0561    0.0165 H         1 <0>         0.4213
@<TRIPOS>BOND
     1    1    2 1
     2    1   31 1
     3    1   32 1
     4    1   33 1
     5    2    6 1
     6    2    3 2
     7    3    4 1
     8    3   27 1
     9    4    5 1
    10    5    6 2
    11    5    7 1
    12    7    8 1
    13    8    9 1
    14    8   10 1
    15    8   11 1
    16   10   34 1
    17   10   35 1
    18   10   36 1
    19   11   12 2
    20   11   13 am
    21   13   14 am
    22   13   37 1
    23   14   15 2
    24   14   16 am
    25   16   17 1
    26   16   38 1
    27   17   22 1
    28   17   26 1
    29   17   18 1
    30   18   19 1
    31   18   39 1
    32   18   40 1
    33   19   25 1
    34   19   20 1
    35   19   41 1
    36   20   21 1
    37   20   42 1
    38   20   43 1
    39   21   22 1
    40   21   23 1
    41   21   44 1
    42   22   45 1
    43   22   46 1
    44   23   24 1
    45   23   47 1
    46   23   48 1
    47   24   25 1
    48   24   26 1
    49   24   49 1
    50   25   50 1
    51   25   51 1
    52   26   52 1
    53   26   53 1
    54   27   28 1
    55   27   54 1
    56   27   55 1
    57   28   29 2
    58   28   30 am
    59   30   56 1
    60   30   57 1
@<TRIPOS>MOLECULE
ZINC46653067
   64    68     0     0     0
SMALL
USER_CHARGES

@<TRIPOS>ATOM
      1 C1         -0.0187    1.5258    0.0104 C.3       1 <0>        -0.1599
      2 C2          0.0021   -0.0041    0.0020 C.3       1 <0>         0.1861
      3 H1          0.5123   -0.3556   -0.8948 H         1 <0>         0.1000
      4 C3         -1.4117   -0.5257    0.0127 C.ar      1 <0>        -0.0828
      5 C4         -2.1212   -0.5700    1.1988 C.ar      1 <0>        -0.1046
      6 C5         -3.4197   -1.0461    1.2170 C.ar      1 <0>        -0.0998
      7 C6         -4.0111   -1.4805    0.0436 C.ar      1 <0>         0.0791
      8 C7         -3.2955   -1.4370   -1.1519 C.ar      1 <0>         0.1002
      9 C8         -1.9977   -0.9533   -1.1646 C.ar      1 <0>        -0.1098
     10 N1         -3.9057   -1.8825   -2.3330 N.am      1 <0>        -0.6609
     11 C9         -5.2468   -2.0431   -2.3566 C.2       1 <0>         0.4905
     12 O1         -5.7930   -2.4574   -3.3572 O.2       1 <0>        -0.5048
     13 C10        -6.0617   -1.7059   -1.1340 C.3       1 <0>         0.0502
     14 O2         -5.2870   -1.9508    0.0427 O.3       1 <0>        -0.3004
     15 N2          0.7106   -0.4894    1.1889 N.am      1 <0>        -0.7266
     16 C11         2.0538   -0.5998    1.1737 C.2       1 <0>         0.5208
     17 O3          2.6758   -0.2974    0.1774 O.2       1 <0>        -0.5283
     18 C12         2.7826   -1.0990    2.3946 C.3       1 <0>        -0.1543
     19 C13         4.2865   -1.1286    2.1142 C.3       1 <0>         0.1544
     20 N3          4.9950   -1.6139    3.3011 N.am      1 <0>        -0.7512
     21 C14         6.3382   -1.7243    3.2859 C.2       1 <0>         0.7058
     22 O4          6.9618   -1.4211    2.2871 O.2       1 <0>        -0.5781
     23 N4          6.9900   -2.1708    4.3778 N.am      1 <0>        -0.7416
     24 C15         8.4500   -2.2908    4.3613 C.3       1 <0>         0.2028
     25 C16         8.8693   -3.2633    3.2570 C.3       1 <0>        -0.1224
     26 C17        10.3940   -3.3887    3.2398 C.3       1 <0>        -0.0829
     27 C18        10.8779   -3.9140    4.5928 C.3       1 <0>        -0.1114
     28 C19        10.4586   -2.9415    5.6971 C.3       1 <0>        -0.0802
     29 C20         8.9339   -2.8161    5.7143 C.3       1 <0>        -0.1141
     30 C21        11.0802   -1.5690    5.4309 C.3       1 <0>        -0.1114
     31 C22        10.5963   -1.0437    4.0779 C.3       1 <0>        -0.0829
     32 C23        11.0156   -2.0162    2.9737 C.3       1 <0>        -0.1094
     33 C24         9.0716   -0.9183    4.0951 C.3       1 <0>        -0.1223
     34 H2          1.0039    1.9031    0.0027 H         1 <0>         0.0680
     35 H3         -0.5459    1.8868   -0.8726 H         1 <0>         0.0694
     36 H4         -0.5289    1.8773    0.9072 H         1 <0>         0.0613
     37 H5         -1.6597   -0.2312    2.1146 H         1 <0>         0.1338
     38 H6         -3.9709   -1.0791    2.1451 H         1 <0>         0.1438
     39 H7         -1.4436   -0.9136   -2.0908 H         1 <0>         0.1376
     40 H8         -3.3731   -2.0722   -3.1212 H         1 <0>         0.4182
     41 H9         -6.3482   -0.6547   -1.1675 H         1 <0>         0.1029
     42 H10        -6.9584   -2.3252   -1.1134 H         1 <0>         0.1488
     43 H11         0.2131   -0.7312    1.9857 H         1 <0>         0.4011
     44 H12         2.5826   -0.4337    3.2345 H         1 <0>         0.1019
     45 H13         2.4385   -2.1044    2.6374 H         1 <0>         0.1017
     46 H14         4.4865   -1.7939    1.2743 H         1 <0>         0.0754
     47 H15         4.6306   -0.1232    1.8714 H         1 <0>         0.0756
     48 H16         4.4975   -1.8557    4.0979 H         1 <0>         0.3939
     49 H17         6.4925   -2.4126    5.1746 H         1 <0>         0.3933
     50 H18         8.4265   -4.2411    3.4466 H         1 <0>         0.0573
     51 H19         8.5246   -2.8891    2.2931 H         1 <0>         0.0877
     52 H20        10.6928   -4.0815    2.4531 H         1 <0>         0.0716
     53 H21        10.4351   -4.8918    4.7824 H         1 <0>         0.0619
     54 H22        11.9642   -4.0033    4.5806 H         1 <0>         0.0646
     55 H23        10.8034   -3.3157    6.6610 H         1 <0>         0.0746
     56 H24         8.6352   -2.1233    6.5010 H         1 <0>         0.0676
     57 H25         8.4910   -3.7939    5.9039 H         1 <0>         0.0675
     58 H26        10.7815   -0.8761    6.2176 H         1 <0>         0.0619
     59 H27        12.1665   -1.6583    5.4186 H         1 <0>         0.0646
     60 H28        11.0392   -0.0659    3.8883 H         1 <0>         0.0717
     61 H29        12.1019   -2.1055    2.9614 H         1 <0>         0.0620
     62 H30        10.6709   -1.6419    2.0097 H         1 <0>         0.0653
     63 H31         8.7268   -0.5441    3.1312 H         1 <0>         0.0877
     64 H32         8.7729   -0.2255    4.8818 H         1 <0>         0.0574
@<TRIPOS>BOND
     1    1    2 1
     2    1   34 1
     3    1   35 1
     4    1   36 1
     5    2    3 1
     6    2    4 1
     7    2   15 1
     8    4    9 ar
     9    4    5 ar
    10    5    6 ar
    11    5   37 1
    12    6    7 ar
    13    6   38 1
    14    7   14 1
    15    7    8 ar
    16    8    9 ar
    17    8   10 1
    18    9   39 1
    19   10   11 am
    20   10   40 1
    21   11   12 2
    22   11   13 1
    23   13   14 1
    24   13   41 1
    25   13   42 1
    26   15   16 am
    27   15   43 1
    28   16   17 2
    29   16   18 1
    30   18   19 1
    31   18   44 1
    32   18   45 1
    33   19   20 1
    34   19   46 1
    35   19   47 1
    36   20   21 am
    37   20   48 1
    38   21   22 2
    39   21   23 am
    40   23   24 1
    41   23   49 1
    42   24   29 1
    43   24   33 1
    44   24   25 1
    45   25   26 1
    46   25   50 1
    47   25   51 1
    48   26   32 1
    49   26   27 1
    50   26   52 1
    51   27   28 1
    52   27   53 1
    53   27   54 1
    54   28   29 1
    55   28   30 1
    56   28   55 1
    57   29   56 1
    58   29   57 1
    59   30   31 1
    60   30   58 1
    61   30   59 1
    62   31   32 1
    63   31   33 1
    64   31   60 1
    65   32   61 1
    66   32   62 1
    67   33   63 1
    68   33   64 1
@<TRIPOS>MOLECULE
ZINC59312822
   57    60     0     0     0
SMALL
USER_CHARGES

@<TRIPOS>ATOM
      1 C1          0.3750    1.3241    0.0233 C.ar      1 <0>        -0.0979
      2 C2          1.5300    2.0812    0.0808 C.ar      1 <0>        -0.1187
      3 C3          2.7650    1.4560    0.1689 C.ar      1 <0>         0.1216
      4 C4          2.8368    0.0650    0.1993 C.ar      1 <0>         0.0746
      5 C5          1.6745   -0.6866    0.1413 C.ar      1 <0>        -0.1175
      6 C6          0.4470   -0.0563    0.0535 C.ar      1 <0>        -0.0791
      7 C7         -0.8159   -0.8761   -0.0094 C.3       1 <0>        -0.0386
      8 C8         -1.1490   -1.1759   -1.4482 C.ar      1 <0>        -0.0748
      9 C9         -1.9465   -0.3049   -2.1671 C.ar      1 <0>        -0.0991
     10 C10        -2.2554   -0.5746   -3.4870 C.ar      1 <0>        -0.1037
     11 C11        -1.7648   -1.7216   -4.0933 C.ar      1 <0>         0.1220
     12 C12        -0.9612   -2.5989   -3.3683 C.ar      1 <0>         0.0806
     13 C13        -0.6517   -2.3184   -2.0475 C.ar      1 <0>        -0.1178
     14 O1         -0.4778   -3.7251   -3.9572 O.3       1 <0>        -0.4946
     15 N1         -2.0769   -1.9975   -5.4312 N.am      1 <0>        -0.6683
     16 C14        -2.2121   -0.9878   -6.3136 C.2       1 <0>         0.4980
     17 O2         -1.9665    0.1507   -5.9748 O.2       1 <0>        -0.4988
     18 C15        -2.6682   -1.2733   -7.7212 C.3       1 <0>         0.0674
     19 H1         -3.6200   -1.8042   -7.7008 H         1 <0>         0.1127
     20 C16        -1.6088   -2.1256   -8.4524 C.3       1 <0>        -0.1484
     21 C17        -1.6192   -1.5116   -9.8789 C.3       1 <0>        -0.1543
     22 C18        -1.9008   -0.0225   -9.5562 C.3       1 <0>         0.0456
     23 O3         -2.8123   -0.0450   -8.4439 O.3       1 <0>        -0.3498
     24 O4          4.0447   -0.5534    0.2852 O.3       1 <0>        -0.4947
     25 N2          3.9373    2.2214    0.2268 N.am      1 <0>        -0.6634
     26 C19         3.8967    3.4811    0.7043 C.2       1 <0>         0.4986
     27 O5          2.8351    3.9769    1.0179 O.2       1 <0>        -0.4981
     28 C20         5.1704    4.2736    0.8484 C.3       1 <0>         0.0674
     29 H2          5.6900    4.3155   -0.1089 H         1 <0>         0.1119
     30 C21         6.0791    3.6162    1.9092 C.3       1 <0>        -0.1471
     31 C22         6.6715    4.8488    2.6452 C.3       1 <0>        -0.1545
     32 C23         5.4769    5.8333    2.5787 C.3       1 <0>         0.0456
     33 O6          4.8691    5.6004    1.2961 O.3       1 <0>        -0.3494
     34 H3         -0.5863    1.8121   -0.0408 H         1 <0>         0.1292
     35 H4          1.4709    3.1593    0.0566 H         1 <0>         0.1576
     36 H5          1.7272   -1.7650    0.1647 H         1 <0>         0.1316
     37 H6         -0.6697   -1.8108    0.5320 H         1 <0>         0.0850
     38 H7         -1.6346   -0.3177    0.4444 H         1 <0>         0.0879
     39 H8         -2.3294    0.5884   -1.6960 H         1 <0>         0.1297
     40 H9         -2.8788    0.1074   -4.0461 H         1 <0>         0.1380
     41 H10        -0.0251   -2.9943   -1.4845 H         1 <0>         0.1321
     42 H11         0.3805   -3.6070   -4.3867 H         1 <0>         0.3884
     43 H12        -2.1957   -2.9151   -5.7222 H         1 <0>         0.4144
     44 H13        -0.6297   -2.0100   -7.9875 H         1 <0>         0.0822
     45 H14        -1.9054   -3.1741   -8.4792 H         1 <0>         0.0959
     46 H15        -0.6512   -1.6319  -10.3654 H         1 <0>         0.0899
     47 H16        -2.4174   -1.9400  -10.4852 H         1 <0>         0.0854
     48 H17        -0.9772    0.4858   -9.2792 H         1 <0>         0.0651
     49 H18        -2.3622    0.4694  -10.4125 H         1 <0>         0.0945
     50 H19         4.3398   -0.7158    1.1916 H         1 <0>         0.3873
     51 H20         4.7780    1.8446   -0.0767 H         1 <0>         0.4151
     52 H21         5.4947    3.0003    2.5927 H         1 <0>         0.0822
     53 H22         6.8676    3.0312    1.4358 H         1 <0>         0.0956
     54 H23         6.9236    4.6062    3.6776 H         1 <0>         0.0900
     55 H24         7.5370    5.2450    2.1141 H         1 <0>         0.0854
     56 H25         4.7672    5.6216    3.3785 H         1 <0>         0.0655
     57 H26         5.8301    6.8621    2.6479 H         1 <0>         0.0947
@<TRIPOS>BOND
     1    1    6 ar
     2    1    2 ar
     3    1   34 1
     4    2    3 ar
     5    2   35 1
     6    3    4 ar
     7    3   25 1
     8    4    5 ar
     9    4   24 1
    10    5    6 ar
    11    5   36 1
    12    6    7 1
    13    7    8 1
    14    7   37 1
    15    7   38 1
    16    8   13 ar
    17    8    9 ar
    18    9   10 ar
    19    9   39 1
    20   10   11 ar
    21   10   40 1
    22   11   12 ar
    23   11   15 1
    24   12   13 ar
    25   12   14 1
    26   13   41 1
    27   14   42 1
    28   15   16 am
    29   15   43 1
    30   16   17 2
    31   16   18 1
    32   18   19 1
    33   18   23 1
    34   18   20 1
    35   20   21 1
    36   20   44 1
    37   20   45 1
    38   21   22 1
    39   21   46 1
    40   21   47 1
    41   22   23 1
    42   22   48 1
    43   22   49 1
    44   24   50 1
    45   25   26 am
    46   25   51 1
    47   26   27 2
    48   26   28 1
    49   28   29 1
    50   28   33 1
    51   28   30 1
    52   30   31 1
    53   30   52 1
    54   30   53 1
    55   31   32 1
    56   31   54 1
    57   31   55 1
    58   32   33 1
    59   32   56 1
    60   32   57 1
@<TRIPOS>MOLECULE
ZINC02138806
   64    68     0     0     0
SMALL
USER_CHARGES
3-[(2-methoxyphenyl)methyl-dimethyl-trioxo-BLAHyl]propanamide
@<TRIPOS>ATOM
      1 C1         -1.8247   -1.3093    1.9152 C.3       1 <0>        -0.1194
      2 C2         -0.6499   -0.3655    1.9268 C.ar      1 <0>        -0.0784
      3 C3         -0.8049    0.9286    2.3895 C.ar      1 <0>        -0.0502
      4 C4          0.2669    1.7967    2.4031 C.ar      1 <0>        -0.0811
      5 C5          1.5150    1.3764    1.9493 C.ar      1 <0>         0.1588
      6 C6          1.6587    0.0725    1.4844 C.ar      1 <0>        -0.1989
      7 C7          0.5863   -0.7913    1.4743 C.ar      1 <0>        -0.0271
      8 C8          3.0971   -0.0599    1.0717 C.3       1 <0>         0.0929
      9 C9          3.2237   -0.4295   -0.4116 C.3       1 <0>        -0.1161
     10 H1          3.3235    0.4447   -1.0550 H         1 <0>         0.1746
     11 C10         4.4588   -1.3708   -0.4756 C.3       1 <0>        -0.1369
     12 H2          5.2261   -1.0150   -1.1632 H         1 <0>         0.1788
     13 C11         4.9631   -1.4630    0.9799 C.3       1 <0>         0.0378
     14 H3          5.3127   -2.4724    1.1969 H         1 <0>         0.1700
     15 C12         6.0838   -0.4495    1.2201 C.3       1 <0>        -0.1401
     16 C13         7.4360   -1.1085    0.9408 C.3       1 <0>        -0.1445
     17 C14         8.5398   -0.1102    1.1774 C.2       1 <0>         0.5148
     18 O1          8.2714    1.0174    1.5343 O.2       1 <0>        -0.5325
     19 N1          9.8253   -0.4704    0.9923 N.am      1 <0>        -0.8528
     20 C15         3.8645   -2.6994   -0.8838 C.2       1 <0>         0.5140
     21 O2          4.4883   -3.7267   -1.0423 O.2       1 <0>        -0.4149
     22 N2          2.5427   -2.5652   -1.0425 N.am      1 <0>        -0.5623
     23 C16         2.0772   -1.3332   -0.8073 C.2       1 <0>         0.5179
     24 O3          0.9169   -0.9940   -0.8970 O.2       1 <0>        -0.4176
     25 C17         1.6759   -3.6768   -1.4417 C.3       1 <0>         0.1542
     26 C18         1.4566   -3.6326   -2.9320 C.ar      1 <0>        -0.1685
     27 C19         0.3025   -3.0721   -3.4448 C.ar      1 <0>        -0.0533
     28 C20         0.1027   -3.0274   -4.8120 C.ar      1 <0>        -0.1589
     29 C21         1.0526   -3.5518   -5.6694 C.ar      1 <0>        -0.0597
     30 C22         2.2056   -4.1178   -5.1616 C.ar      1 <0>        -0.2124
     31 C23         2.4107   -4.1596   -3.7900 C.ar      1 <0>         0.1468
     32 O4          3.5446   -4.7156   -3.2879 O.3       1 <0>        -0.3035
     33 C24         4.5303   -5.1422   -4.2305 C.3       1 <0>         0.0276
     34 C25         3.7119    1.2825    1.3585 C.2       1 <0>         0.5270
     35 O5          4.8655    1.6060    1.1699 O.2       1 <0>        -0.4238
     36 N3          2.7321    2.0560    1.8649 N.am      1 <0>        -0.6355
     37 C26         0.0869    3.2045    2.9100 C.3       1 <0>        -0.1255
     38 H4         -2.3992   -1.1630    1.0005 H         1 <0>         0.0828
     39 H5         -1.4652   -2.3374    1.9579 H         1 <0>         0.0705
     40 H6         -2.4593   -1.1101    2.7787 H         1 <0>         0.0776
     41 H7         -1.7711    1.2625    2.7378 H         1 <0>         0.1470
     42 H8          0.7102   -1.8014    1.1127 H         1 <0>         0.1281
     43 H9          5.9510    0.4036    0.5547 H         1 <0>         0.1449
     44 H10         6.0516   -0.1109    2.2557 H         1 <0>         0.0980
     45 H11         7.5688   -1.9615    1.6062 H         1 <0>         0.1036
     46 H12         7.4681   -1.4471   -0.0948 H         1 <0>         0.1066
     47 H13        10.0400   -1.3723    0.7069 H         1 <0>         0.4043
     48 H14        10.5358    0.1721    1.1446 H         1 <0>         0.4086
     49 H15         2.1486   -4.6211   -1.1719 H         1 <0>         0.1149
     50 H16         0.7169   -3.5913   -0.9307 H         1 <0>         0.1054
     51 H17        -0.4425   -2.6653   -2.7770 H         1 <0>         0.1333
     52 H18        -0.7985   -2.5859   -5.2109 H         1 <0>         0.1299
     53 H19         0.8925   -3.5190   -6.7370 H         1 <0>         0.1306
     54 H20         2.9471   -4.5272   -5.8317 H         1 <0>         0.1329
     55 H21         5.3475   -5.6349   -3.7037 H         1 <0>         0.1037
     56 H22         4.0800   -5.8400   -4.9364 H         1 <0>         0.0586
     57 H23         4.9153   -4.2770   -4.7703 H         1 <0>         0.0541
     58 H24         2.8574    2.9780    2.1389 H         1 <0>         0.4364
     59 H25         0.2835    3.2327    3.9817 H         1 <0>         0.0828
     60 H26         0.7823    3.8676    2.3954 H         1 <0>         0.0678
     61 H27        -0.9354    3.5313    2.7194 H         1 <0>         0.0841
     62 N4          3.7881   -1.1200    1.7844 N.4       1 <0>        -0.4932
     63 H28         3.1757   -1.9380    1.8848 H         1 <0>         0.4397
     64 H29         4.0774   -0.7930    2.7137 H         1 <0>         0.4457
@<TRIPOS>BOND
     1    1    2 1
     2    1   38 1
     3    1   39 1
     4    1   40 1
     5    2    7 ar
     6    2    3 ar
     7    3    4 ar
     8    3   41 1
     9    4    5 ar
    10    4   37 1
    11    5   36 1
    12    5    6 ar
    13    6    7 ar
    14    6    8 1
    15    7   42 1
    16    8    9 1
    17    8   34 1
    18    8   62 1
    19    9   10 1
    20    9   23 1
    21    9   11 1
    22   11   12 1
    23   11   13 1
    24   11   20 1
    25   13   14 1
    26   13   15 1
    27   13   62 1
    28   15   16 1
    29   15   43 1
    30   15   44 1
    31   16   17 1
    32   16   45 1
    33   16   46 1
    34   17   18 2
    35   17   19 am
    36   19   47 1
    37   19   48 1
    38   20   21 2
    39   20   22 am
    40   22   23 am
    41   22   25 1
    42   23   24 2
    43   25   26 1
    44   25   49 1
    45   25   50 1
    46   26   31 ar
    47   26   27 ar
    48   27   28 ar
    49   27   51 1
    50   28   29 ar
    51   28   52 1
    52   29   30 ar
    53   29   53 1
    54   30   31 ar
    55   30   54 1
    56   31   32 1
    57   32   33 1
    58   33   55 1
    59   33   56 1
    60   33   57 1
    61   34   35 2
    62   34   36 am
    63   36   58 1
    64   37   59 1
    65   37   60 1
    66   37   61 1
    67   62   63 1
    68   62   64 1
@<TRIPOS>MOLECULE
ZINC08790874
   60    65     0     0     0
SMALL
USER_CHARGES
2-(benzo[1,3]dioxol-5-ylmethyl-ethyl-trioxo-BLAHyl)acetamide
@<TRIPOS>ATOM
      1 C1          6.4807    4.0370    2.4583 C.3       1 <0>        -0.1527
      2 C2          5.3109    4.8750    2.9780 C.3       1 <0>        -0.0933
      3 C3          4.2010    4.8751    1.9586 C.ar      1 <0>        -0.0830
      4 C4          4.1052    5.9054    1.0460 C.ar      1 <0>        -0.0427
      5 C5          3.0911    5.9142    0.1062 C.ar      1 <0>        -0.1172
      6 C6          2.1670    4.8841    0.0810 C.ar      1 <0>        -0.0246
      7 C7          2.2581    3.8539    0.9895 C.ar      1 <0>        -0.2060
      8 C8          3.2749    3.8352    1.9404 C.ar      1 <0>         0.1712
      9 N1          3.1612    2.7004    2.7465 N.am      1 <0>        -0.6366
     10 C9          2.1113    1.9321    2.3972 C.2       1 <0>         0.5349
     11 O1          1.7697    0.8919    2.9191 O.2       1 <0>        -0.4384
     12 C10         1.4448    2.6148    1.2340 C.3       1 <0>         0.0944
     13 C11         1.4117    1.7078   -0.0022 C.3       1 <0>        -0.1160
     14 H1          2.2015    0.9566   -0.0036 H         1 <0>         0.1792
     15 C12        -0.0127    1.0858    0.0080 C.3       1 <0>        -0.1381
     16 H2          0.0021   -0.0041    0.0020 H         1 <0>         0.1870
     17 C13        -0.6886    1.6629    1.2696 C.3       1 <0>         0.0604
     18 H3         -0.5873    0.9697    2.1047 H         1 <0>         0.1860
     19 C14        -2.1651    1.9557    0.9956 C.3       1 <0>        -0.1705
     20 C15        -2.8338    2.4013    2.2705 C.2       1 <0>         0.5143
     21 O2         -2.1926    2.4771    3.2972 O.2       1 <0>        -0.5510
     22 N2         -4.1445    2.7155    2.2698 N.am      1 <0>        -0.8330
     23 C16        -0.6560    1.6659   -1.2307 C.2       1 <0>         0.5211
     24 O3         -1.7890    1.4448   -1.6006 O.2       1 <0>        -0.4343
     25 N3          0.2198    2.4614   -1.8553 N.am      1 <0>        -0.5649
     26 C17         1.4118    2.5555   -1.2547 C.2       1 <0>         0.5178
     27 O4          2.3464    3.2170   -1.6527 O.2       1 <0>        -0.4114
     28 C18        -0.1004    3.1720   -3.0958 C.3       1 <0>         0.1467
     29 C19         0.2582    2.3075   -4.2769 C.ar      1 <0>        -0.1285
     30 C20        -0.6782    1.4380   -4.8048 C.ar      1 <0>        -0.0812
     31 C21        -0.3541    0.6433   -5.8885 C.ar      1 <0>        -0.1037
     32 C22         0.9109    0.7168   -6.4486 C.ar      1 <0>         0.0547
     33 C23         1.8541    1.5926   -5.9168 C.ar      1 <0>         0.0319
     34 C24         1.5208    2.3896   -4.8337 C.ar      1 <0>        -0.0773
     35 O5          3.0087    1.4797   -6.6362 O.3       1 <0>        -0.3044
     36 C25         2.8952    0.2359   -7.3526 C.3       1 <0>         0.2121
     37 O6          1.4745    0.0552   -7.5012 O.3       1 <0>        -0.3030
     38 H4          7.2834    4.0369    3.1956 H         1 <0>         0.0694
     39 H5          6.1462    3.0141    2.2853 H         1 <0>         0.0523
     40 H6          6.8458    4.4628    1.5237 H         1 <0>         0.0637
     41 H7          5.6454    5.8979    3.1511 H         1 <0>         0.0894
     42 H8          4.9458    4.4492    3.9126 H         1 <0>         0.0736
     43 H9          4.8263    6.7091    1.0655 H         1 <0>         0.1480
     44 H10         3.0204    6.7225   -0.6065 H         1 <0>         0.1469
     45 H11         1.3740    4.8884   -0.6523 H         1 <0>         0.1279
     46 H12         3.7677    2.4901    3.4737 H         1 <0>         0.4370
     47 H13        -2.2464    2.7445    0.2478 H         1 <0>         0.1209
     48 H14        -2.6520    1.0532    0.6262 H         1 <0>         0.1623
     49 H15        -4.6573    2.6548    1.4487 H         1 <0>         0.4124
     50 H16        -4.5749    3.0023    3.0904 H         1 <0>         0.4170
     51 H17        -1.1666    3.3972   -3.1207 H         1 <0>         0.1181
     52 H18         0.4683    4.1009   -3.1395 H         1 <0>         0.1144
     53 H19        -1.6648    1.3794   -4.3694 H         1 <0>         0.1435
     54 H20        -1.0876   -0.0350   -6.2988 H         1 <0>         0.1428
     55 H21         2.2488    3.0729   -4.4220 H         1 <0>         0.1400
     56 H22         3.3266   -0.5805   -6.7733 H         1 <0>         0.0894
     57 H23         3.3763    0.3078   -8.3280 H         1 <0>         0.1394
     58 N4          0.0529    2.9062    1.5227 N.4       1 <0>        -0.4941
     59 H24        -0.2886    3.6551    0.9089 H         1 <0>         0.4321
     60 H25        -0.0551    3.1913    2.5031 H         1 <0>         0.4540
@<TRIPOS>BOND
     1    1    2 1
     2    1   38 1
     3    1   39 1
     4    1   40 1
     5    2    3 1
     6    2   41 1
     7    2   42 1
     8    3    8 ar
     9    3    4 ar
    10    4    5 ar
    11    4   43 1
    12    5    6 ar
    13    5   44 1
    14    6    7 ar
    15    6   45 1
    16    7   12 1
    17    7    8 ar
    18    8    9 1
    19    9   10 am
    20    9   46 1
    21   10   11 2
    22   10   12 1
    23   12   13 1
    24   12   58 1
    25   13   14 1
    26   13   26 1
    27   13   15 1
    28   15   16 1
    29   15   17 1
    30   15   23 1
    31   17   18 1
    32   17   19 1
    33   17   58 1
    34   19   20 1
    35   19   47 1
    36   19   48 1
    37   20   21 2
    38   20   22 am
    39   22   49 1
    40   22   50 1
    41   23   24 2
    42   23   25 am
    43   25   26 am
    44   25   28 1
    45   26   27 2
    46   28   29 1
    47   28   51 1
    48   28   52 1
    49   29   34 ar
    50   29   30 ar
    51   30   31 ar
    52   30   53 1
    53   31   32 ar
    54   31   54 1
    55   32   37 1
    56   32   33 ar
    57   33   34 ar
    58   33   35 1
    59   34   55 1
    60   35   36 1
    61   36   37 1
    62   36   56 1
    63   36   57 1
    64   58   59 1
    65   58   60 1
@<TRIPOS>MOLECULE
ZINC12882789
   57    62     0     0     0
SMALL
USER_CHARGES
(1R,3R,3aR,6aS)-5-(1,3-benzodioxol-5-ylmethyl)-6'-chloro-1-(1-hydroxyethyl)-7'-methyl-spiro[1,2,3a,6a-tetrahydropyrrolo[4,3-c]pyrrole-3,3'-indoline]-2',4,6-trione
@<TRIPOS>ATOM
      1 C1          2.8802    4.7112   -0.1140 C.3       1 <0>        -0.1335
      2 C2          1.3755    4.7336   -0.0343 C.ar      1 <0>        -0.0786
      3 C3          0.7106    5.9376    0.0880 C.ar      1 <0>         0.0238
      4 C4         -0.6708    5.9679    0.1626 C.ar      1 <0>        -0.1123
      5 C5         -1.3886    4.7858    0.1149 C.ar      1 <0>        -0.0366
      6 C6         -0.7294    3.5835   -0.0067 C.ar      1 <0>        -0.1976
      7 C7          0.6601    3.5402   -0.0833 C.ar      1 <0>         0.1850
      8 N1          1.0960    2.2189   -0.2025 N.am      1 <0>        -0.6359
      9 C8          0.0712    1.3448   -0.2131 C.2       1 <0>         0.5289
     10 O1          0.1496    0.1381   -0.3076 O.2       1 <0>        -0.4175
     11 C9         -1.1895    2.1559   -0.0916 C.3       1 <0>         0.0915
     12 C10        -1.9981    1.7533    1.1479 C.3       1 <0>        -0.1182
     13 H1         -1.7561    2.3587    2.0214 H         1 <0>         0.1844
     14 C11        -3.4822    1.8936    0.7082 C.3       1 <0>        -0.1346
     15 H2         -4.0507    2.5682    1.3484 H         1 <0>         0.1865
     16 C12        -3.4182    2.3783   -0.7557 C.3       1 <0>        -0.0001
     17 H3         -3.5011    3.4642   -0.7996 H         1 <0>         0.1714
     18 C13        -4.5277    1.7268   -1.5835 C.3       1 <0>         0.0877
     19 H4         -4.5181    0.6492   -1.4199 H         1 <0>         0.1312
     20 C14        -5.8828    2.2953   -1.1573 C.3       1 <0>        -0.1824
     21 O2         -4.3111    2.0001   -2.9693 O.3       1 <0>        -0.5477
     22 C15        -4.0081    0.4769    0.7428 C.2       1 <0>         0.5211
     23 O3         -5.1390    0.1424    0.4620 O.2       1 <0>        -0.4242
     24 N2         -3.0076   -0.3452    1.1345 N.am      1 <0>        -0.5645
     25 C16        -1.8468    0.2684    1.3916 C.2       1 <0>         0.5151
     26 O4         -0.8314   -0.2806    1.7618 O.2       1 <0>        -0.4106
     27 C17        -3.1861   -1.7927    1.2725 C.3       1 <0>         0.1470
     28 C18        -3.6410   -2.1115    2.6734 C.ar      1 <0>        -0.1265
     29 C19        -4.9911   -2.1497    2.9683 C.ar      1 <0>        -0.0822
     30 C20        -5.4133   -2.4421    4.2518 C.ar      1 <0>        -0.1033
     31 C21        -4.4831   -2.6975    5.2463 C.ar      1 <0>         0.0536
     32 C22        -3.1231   -2.6591    4.9492 C.ar      1 <0>         0.0319
     33 C23        -2.7074   -2.3709    3.6593 C.ar      1 <0>        -0.0776
     34 O5         -2.4203   -2.9423    6.0846 O.3       1 <0>        -0.3046
     35 C24        -3.3486   -2.7522    7.1687 C.3       1 <0>         0.2121
     36 O6         -4.6325   -3.0048    6.5679 O.3       1 <0>        -0.3031
     37 Cl1         1.6118    7.4201    0.1487 Cl        1 <0>        -0.0157
     38 H5          3.1899    4.7797   -1.1568 H         1 <0>         0.0910
     39 H6          3.2861    5.5564    0.4418 H         1 <0>         0.0915
     40 H7          3.2530    3.7812    0.3154 H         1 <0>         0.0751
     41 H8         -1.1874    6.9115    0.2575 H         1 <0>         0.1600
     42 H9         -2.4668    4.8065    0.1735 H         1 <0>         0.1470
     43 H10         2.0286    1.9605   -0.2698 H         1 <0>         0.4394
     44 H11        -5.8924    3.3729   -1.3209 H         1 <0>         0.0716
     45 H12        -6.6732    1.8312   -1.7471 H         1 <0>         0.0931
     46 H13        -6.0480    2.0868   -0.1003 H         1 <0>         0.0897
     47 H14        -4.3071    2.9419   -3.1885 H         1 <0>         0.3893
     48 H15        -3.9363   -2.1358    0.5600 H         1 <0>         0.1173
     49 H16        -2.2398   -2.2960    1.0743 H         1 <0>         0.1158
     50 H17        -5.7176   -1.9509    2.1943 H         1 <0>         0.1437
     51 H18        -6.4686   -2.4712    4.4794 H         1 <0>         0.1430
     52 H19        -1.6534   -2.3448    3.4250 H         1 <0>         0.1396
     53 H20        -3.2955   -1.7301    7.5436 H         1 <0>         0.0891
     54 H21        -3.1535   -3.4655    7.9695 H         1 <0>         0.1390
     55 N3         -2.0922    1.9543   -1.2112 N.4       1 <0>        -0.4903
     56 H22        -2.1093    0.9634   -1.4797 H         1 <0>         0.4404
     57 H23        -1.7946    2.5213   -2.0139 H         1 <0>         0.4509
@<TRIPOS>BOND
     1    1    2 1
     2    1   38 1
     3    1   39 1
     4    1   40 1
     5    2    7 ar
     6    2    3 ar
     7    3    4 ar
     8    3   37 1
     9    4    5 ar
    10    4   41 1
    11    5    6 ar
    12    5   42 1
    13    6   11 1
    14    6    7 ar
    15    7    8 1
    16    8    9 am
    17    8   43 1
    18    9   10 2
    19    9   11 1
    20   11   12 1
    21   11   55 1
    22   12   13 1
    23   12   25 1
    24   12   14 1
    25   14   15 1
    26   14   16 1
    27   14   22 1
    28   16   17 1
    29   16   18 1
    30   16   55 1
    31   18   19 1
    32   18   20 1
    33   18   21 1
    34   20   44 1
    35   20   45 1
    36   20   46 1
    37   21   47 1
    38   22   23 2
    39   22   24 am
    40   24   25 am
    41   24   27 1
    42   25   26 2
    43   27   28 1
    44   27   48 1
    45   27   49 1
    46   28   33 ar
    47   28   29 ar
    48   29   30 ar
    49   29   50 1
    50   30   31 ar
    51   30   51 1
    52   31   36 1
    53   31   32 ar
    54   32   33 ar
    55   32   34 1
    56   33   52 1
    57   34   35 1
    58   35   36 1
    59   35   53 1
    60   35   54 1
    61   55   56 1
    62   55   57 1
@<TRIPOS>MOLECULE
ZINC39545401
   63    68     0     0     0
SMALL
USER_CHARGES

@<TRIPOS>ATOM
      1 C1         -0.0167    1.3774    0.0096 C.ar      1 <0>        -0.1032
      2 C2          1.1687    2.0899    0.0021 C.ar      1 <0>        -0.0753
      3 C3          2.3756    1.4188   -0.0105 C.ar      1 <0>        -0.1173
      4 C4          2.3960    0.0303   -0.0165 C.ar      1 <0>         0.1108
      5 C5          1.2072   -0.6848   -0.0133 C.ar      1 <0>        -0.1307
      6 C6          0.0021   -0.0041    0.0020 C.ar      1 <0>        -0.0703
      7 C7          1.2029   -2.1900   -0.0326 C.3       1 <0>         0.1175
      8 N1          2.5381   -2.7101    0.2935 N.pl3     1 <0>        -0.4710
      9 C8          2.8206   -4.1046    0.6628 C.3       1 <0>         0.0900
     10 H1          2.8230   -4.7370   -0.2250 H         1 <0>         0.1491
     11 C9          4.2247   -4.0829    1.3079 C.3       1 <0>        -0.1160
     12 C10         4.8255   -2.8107    0.6634 C.3       1 <0>        -0.0269
     13 H2          5.4043   -3.0681   -0.2236 H         1 <0>         0.1609
     14 C11         3.6154   -1.9899    0.2869 C.cat     1 <0>         0.5052
     15 N2          3.6234   -0.6466   -0.0216 N.pl3     1 <0>        -0.5872
     16 C12         5.6832   -2.0694    1.6563 C.ar      1 <0>        -0.1456
     17 C13         5.1318   -1.6038    2.8344 C.ar      1 <0>        -0.0918
     18 C14         5.9180   -0.9232    3.7454 C.ar      1 <0>        -0.1164
     19 C15         7.2579   -0.7070    3.4804 C.ar      1 <0>        -0.0758
     20 C16         7.8140   -1.1709    2.3042 C.ar      1 <0>        -0.1355
     21 C17         7.0283   -1.8588    1.3906 C.ar      1 <0>         0.1344
     22 O1          7.5744   -2.3211    0.2353 O.3       1 <0>        -0.4911
     23 C18         1.7975   -4.5998    1.6523 C.2       1 <0>         0.5195
     24 O2          0.9074   -3.8642    2.0237 O.2       1 <0>        -0.5033
     25 N3          1.8715   -5.8599    2.1245 N.am      1 <0>        -0.4840
     26 C19         2.9002   -6.7101    1.6953 C.ar      1 <0>         0.0637
     27 C20         4.0999   -6.7565    2.3905 C.ar      1 <0>        -0.0882
     28 C21         5.1123   -7.5956    1.9657 C.ar      1 <0>        -0.1176
     29 C22         4.9333   -8.3900    0.8481 C.ar      1 <0>        -0.0798
     30 C23         3.7407   -8.3493    0.1501 C.ar      1 <0>        -0.1350
     31 C24         2.7185   -7.5148    0.5728 C.ar      1 <0>         0.1166
     32 O3          1.5430   -7.4775   -0.1095 O.3       1 <0>        -0.4843
     33 C25         0.9197   -6.3206    3.0450 C.ar      1 <0>         0.0942
     34 C26        -0.2412   -6.9339    2.5970 C.ar      1 <0>        -0.0797
     35 C27        -1.1777   -7.3876    3.5063 C.ar      1 <0>        -0.1186
     36 C28        -0.9613   -7.2315    4.8631 C.ar      1 <0>        -0.0846
     37 C29         0.1931   -6.6213    5.3171 C.ar      1 <0>        -0.1379
     38 C30         1.1397   -6.1688    4.4121 C.ar      1 <0>         0.1214
     39 O4          2.2780   -5.5731    4.8572 O.3       1 <0>        -0.4912
     40 H3         -0.9602    1.9026    0.0260 H         1 <0>         0.1451
     41 H4          1.1505    3.1698    0.0058 H         1 <0>         0.1471
     42 H5          3.3024    1.9732   -0.0162 H         1 <0>         0.1432
     43 H6         -0.9269   -0.5548    0.0080 H         1 <0>         0.1454
     44 H7          0.4839   -2.5580    0.6993 H         1 <0>         0.1535
     45 H8          0.9132   -2.5370   -1.0245 H         1 <0>         0.1174
     46 H9          4.1578   -3.9803    2.3910 H         1 <0>         0.1155
     47 H10         4.7965   -4.9695    1.0339 H         1 <0>         0.1407
     48 H11         4.0856   -1.7713    3.0437 H         1 <0>         0.1204
     49 H12         5.4849   -0.5594    4.6655 H         1 <0>         0.1355
     50 H13         7.8699   -0.1747    4.1935 H         1 <0>         0.1393
     51 H14         8.8605   -1.0017    2.0977 H         1 <0>         0.1422
     52 H15         7.5343   -1.6920   -0.4980 H         1 <0>         0.3958
     53 H16         4.2426   -6.1366    3.2633 H         1 <0>         0.1409
     54 H17         6.0457   -7.6308    2.5077 H         1 <0>         0.1398
     55 H18         5.7276   -9.0438    0.5193 H         1 <0>         0.1398
     56 H19         3.6042   -8.9710   -0.7223 H         1 <0>         0.1422
     57 H20         1.5216   -6.8223   -0.8204 H         1 <0>         0.3863
     58 H21        -0.4132   -7.0565    1.5379 H         1 <0>         0.1356
     59 H22        -2.0811   -7.8649    3.1563 H         1 <0>         0.1363
     60 H23        -1.6963   -7.5870    5.5701 H         1 <0>         0.1370
     61 H24         0.3590   -6.5010    6.3774 H         1 <0>         0.1387
     62 H25         2.2048   -4.6148    4.9635 H         1 <0>         0.3876
     63 H26         4.4498   -0.1857   -0.2350 H         1 <0>         0.4498
@<TRIPOS>BOND
     1    1    6 ar
     2    1    2 ar
     3    1   40 1
     4    2    3 ar
     5    2   41 1
     6    3    4 ar
     7    3   42 1
     8    4   15 1
     9    4    5 ar
    10    5    6 ar
    11    5    7 1
    12    6   43 1
    13    7    8 1
    14    7   44 1
    15    7   45 1
    16    8   14 2
    17    8    9 1
    18    9   10 1
    19    9   11 1
    20    9   23 1
    21   11   12 1
    22   11   46 1
    23   11   47 1
    24   12   13 1
    25   12   14 1
    26   12   16 1
    27   14   15 1
    28   15   63 1
    29   16   21 ar
    30   16   17 ar
    31   17   18 ar
    32   17   48 1
    33   18   19 ar
    34   18   49 1
    35   19   20 ar
    36   19   50 1
    37   20   21 ar
    38   20   51 1
    39   21   22 1
    40   22   52 1
    41   23   24 2
    42   23   25 am
    43   25   26 1
    44   25   33 1
    45   26   31 ar
    46   26   27 ar
    47   27   28 ar
    48   27   53 1
    49   28   29 ar
    50   28   54 1
    51   29   30 ar
    52   29   55 1
    53   30   31 ar
    54   30   56 1
    55   31   32 1
    56   32   57 1
    57   33   38 ar
    58   33   34 ar
    59   34   35 ar
    60   34   58 1
    61   35   36 ar
    62   35   59 1
    63   36   37 ar
    64   36   60 1
    65   37   38 ar
    66   37   61 1
    67   38   39 1
    68   39   62 1
@<TRIPOS>MOLECULE
ZINC63272279
   51    54     0     0     0
SMALL
USER_CHARGES

@<TRIPOS>ATOM
      1 C1         -0.0169    1.3986    0.0097 C.ar      1 <0>         0.0536
      2 C2          1.1089    2.1429    0.0030 C.ar      1 <0>        -0.1883
      3 C3          2.3855    1.5158   -0.0130 C.ar      1 <0>         0.3298
      4 N1          3.6000    2.0090   -0.0224 N.pl3     1 <0>        -0.5766
      5 C4          4.5566    0.8968   -0.0378 C.3       1 <0>         0.0592
      6 C5          3.7244   -0.3660   -0.0363 C.2       1 <0>         0.0803
      7 C6          2.4332    0.0361   -0.0214 C.ar      1 <0>        -0.1614
      8 C7          1.1630   -0.6994   -0.0127 C.ar      1 <0>        -0.0075
      9 C8          0.0021   -0.0041    0.0020 C.ar      1 <0>        -0.0744
     10 Cl1        -1.5024   -0.8703    0.0123 Cl        1 <0>        -0.0127
     11 C9          4.2312   -1.7852   -0.0489 C.3       1 <0>        -0.1091
     12 C10         4.5075   -2.2153   -1.4909 C.3       1 <0>         0.1244
     13 N2          5.0002   -3.5949   -1.5032 N.am      1 <0>        -0.7071
     14 C11         5.3116   -4.1889   -2.6722 C.2       1 <0>         0.5110
     15 O1          5.1839   -3.5810   -3.7146 O.2       1 <0>        -0.5113
     16 C12         5.8143   -5.5963   -2.6847 C.2       1 <0>         0.4969
     17 O2          5.9421   -6.2042   -1.6422 O.2       1 <0>        -0.4570
     18 N3          6.1257   -6.1903   -3.8537 N.am      1 <0>        -0.6977
     19 C13         6.6184   -7.5699   -3.8659 C.3       1 <0>         0.2181
     20 H1          7.6939   -7.5993   -4.0408 H         1 <0>         0.1330
     21 C14         5.8744   -8.4080   -4.8885 C.2       1 <0>        -0.2195
     22 C15         4.9568   -9.2575   -4.4693 C.2       1 <0>         0.0106
     23 C16         4.1290  -10.4265   -5.0014 C.3       1 <0>        -0.0775
     24 C17         3.6953  -11.2612   -3.7766 C.3       1 <0>        -0.1236
     25 C18         4.6102  -10.7503   -2.6248 C.3       1 <0>        -0.1051
     26 C19         4.6598   -9.2503   -2.9663 C.3       1 <0>        -0.0753
     27 H2          3.7402   -8.7248   -2.7091 H         1 <0>         0.1277
     28 S1          6.1723   -8.4513   -2.3043 S.3       1 <0>        -0.1558
     29 C20         6.1711   -8.2751   -6.3232 C.2       1 <0>         0.5714
     30 O3          5.5681   -8.9518   -7.1340 O.2       1 <0>        -0.5273
     31 N4          7.1112   -7.4034   -6.7389 N.am      1 <0>        -0.8518
     32 H3         -0.9715    1.9036    0.0262 H         1 <0>         0.1711
     33 H4          1.0401    3.2207    0.0094 H         1 <0>         0.1715
     34 H5          5.1701    0.9413   -0.9377 H         1 <0>         0.1798
     35 H6          5.1878    0.9318    0.8501 H         1 <0>         0.1805
     36 H7          1.1550   -1.7793   -0.0180 H         1 <0>         0.1708
     37 H8          5.1518   -1.8474    0.5315 H         1 <0>         0.1250
     38 H9          3.4805   -2.4430    0.3890 H         1 <0>         0.1204
     39 H10         3.5870   -2.1531   -2.0713 H         1 <0>         0.0845
     40 H11         5.2582   -1.5575   -1.9288 H         1 <0>         0.0846
     41 H12         5.1024   -4.0808   -0.6699 H         1 <0>         0.4196
     42 H13         6.0235   -5.7044   -4.6870 H         1 <0>         0.4152
     43 H14         3.2506  -10.0523   -5.5272 H         1 <0>         0.0971
     44 H15         4.7338  -11.0363   -5.6726 H         1 <0>         0.0977
     45 H16         2.6469  -11.0774   -3.5414 H         1 <0>         0.0779
     46 H17         3.8664  -12.3223   -3.9579 H         1 <0>         0.0845
     47 H18         4.1516  -10.9194   -1.6505 H         1 <0>         0.0865
     48 H19         5.6012  -11.2011   -2.6769 H         1 <0>         0.0895
     49 H20         7.5921   -6.8637   -6.0922 H         1 <0>         0.3978
     50 H21         7.3068   -7.3158   -7.6850 H         1 <0>         0.4102
     51 H22         3.8281    2.9518   -0.0197 H         1 <0>         0.4588
@<TRIPOS>BOND
     1    1    9 ar
     2    1    2 ar
     3    1   32 1
     4    2    3 ar
     5    2   33 1
     6    3    7 ar
     7    3    4 2
     8    4    5 1
     9    4   51 1
    10    5    6 1
    11    5   34 1
    12    5   35 1
    13    6    7 2
    14    6   11 1
    15    7    8 ar
    16    8    9 ar
    17    8   36 1
    18    9   10 1
    19   11   12 1
    20   11   37 1
    21   11   38 1
    22   12   13 1
    23   12   39 1
    24   12   40 1
    25   13   14 am
    26   13   41 1
    27   14   15 2
    28   14   16 1
    29   16   17 2
    30   16   18 am
    31   18   19 1
    32   18   42 1
    33   19   20 1
    34   19   28 1
    35   19   21 1
    36   21   22 2
    37   21   29 1
    38   22   26 1
    39   22   23 1
    40   23   24 1
    41   23   43 1
    42   23   44 1
    43   24   25 1
    44   24   45 1
    45   24   46 1
    46   25   26 1
    47   25   47 1
    48   25   48 1
    49   26   27 1
    50   26   28 1
    51   29   30 2
    52   29   31 am
    53   31   49 1
    54   31   50 1
@<TRIPOS>MOLECULE
ZINC06075039
   58    60     0     0     0
SMALL
USER_CHARGES
4-amino-N'-[2-furyl-(tert-butylcarbamoyl)methyl]-N'-(tetrahydrofuran-2-ylmethyl)isothiazole-3,5-dicarboxamide
@<TRIPOS>ATOM
      1 C1         -5.1041    3.7777    3.6664 C.3       1 <0>        -0.1653
      2 C2         -5.3897    3.4525    2.1989 C.3       1 <0>         0.1696
      3 C3         -6.7530    4.0249    1.8056 C.3       1 <0>        -0.1566
      4 C4         -5.3988    1.9348    2.0053 C.3       1 <0>        -0.1630
      5 N1         -4.3492    4.0461    1.3556 N.am      1 <0>        -0.7143
      6 C5         -3.0605    3.6887    1.5235 C.2       1 <0>         0.5108
      7 O1         -2.7624    2.8757    2.3726 O.2       1 <0>        -0.5139
      8 C6         -1.9901    4.2993    0.6561 C.3       1 <0>         0.2134
      9 H1         -1.9837    5.3806    0.7940 H         1 <0>         0.1542
     10 C7         -2.2715    3.9790   -0.7894 C.2       1 <0>        -0.0340
     11 C8         -2.6338    4.8641   -1.7352 C.2       1 <0>        -0.1754
     12 C9         -2.7903    4.1374   -2.9378 C.2       1 <0>        -0.2088
     13 C10        -2.5222    2.8504   -2.6531 C.2       1 <0>        -0.0302
     14 O2         -2.2086    2.7603   -1.3504 O.3       1 <0>        -0.1662
     15 N2         -0.6848    3.7512    1.0326 N.am      1 <0>        -0.5859
     16 C11        -0.3957    2.3317    0.8141 C.3       1 <0>         0.1260
     17 C12         0.3598    2.1623   -0.5055 C.3       1 <0>         0.0425
     18 H2         -0.2422    2.5270   -1.3378 H         1 <0>         0.0902
     19 C13         0.7364    0.6800   -0.7231 C.3       1 <0>        -0.1473
     20 C14         2.1334    0.7402   -1.3803 C.3       1 <0>        -0.1527
     21 C15         2.4356    2.2517   -1.4820 C.3       1 <0>         0.0428
     22 O3          1.6231    2.8604   -0.4548 O.3       1 <0>        -0.3618
     23 C16         0.2502    4.5528    1.5800 C.2       1 <0>         0.6401
     24 O4          0.0489    5.7499    1.6693 O.2       1 <0>        -0.5408
     25 C17         1.5082    3.9836    2.0674 C.2       1 <0>        -0.3748
     26 C18         2.5709    4.6131    2.7181 C.2       1 <0>         0.2719
     27 C19         3.6050    3.7301    3.0294 C.2       1 <0>        -0.0488
     28 N3          3.4894    2.4625    2.7006 N.2       1 <0>        -0.4697
     29 S1          2.0888    2.3017    1.9959 S.3       1 <0>         0.5135
     30 C20         4.8146    4.2133    3.7203 C.2       1 <0>         0.6021
     31 O5          4.9146    5.3871    4.0219 O.2       1 <0>        -0.5459
     32 N4          5.8094    3.3540    4.0177 N.am      1 <0>        -0.8334
     33 N5          2.5960    5.9678    3.0213 N.pl3     1 <0>        -0.8108
     34 H3         -5.0976    4.8590    3.8043 H         1 <0>         0.0553
     35 H4         -5.8783    3.3361    4.2938 H         1 <0>         0.0648
     36 H5         -4.1329    3.3699    3.9465 H         1 <0>         0.0781
     37 H6         -6.9565    3.7932    0.7602 H         1 <0>         0.0626
     38 H7         -7.5272    3.5832    2.4330 H         1 <0>         0.0757
     39 H8         -6.7465    5.1061    1.9435 H         1 <0>         0.0634
     40 H9         -4.4276    1.5269    2.2855 H         1 <0>         0.0776
     41 H10        -6.1730    1.4931    2.6327 H         1 <0>         0.0645
     42 H11        -5.6023    1.7030    0.9599 H         1 <0>         0.0540
     43 H12        -4.5876    4.6963    0.6765 H         1 <0>         0.4013
     44 H13        -2.7757    5.9264   -1.6020 H         1 <0>         0.1538
     45 H14        -3.0742    4.5382   -3.8997 H         1 <0>         0.1525
     46 H15        -2.5542    2.0287   -3.3534 H         1 <0>         0.2056
     47 H16        -1.3306    1.7729    0.7719 H         1 <0>         0.1144
     48 H17         0.2160    1.9551    1.6339 H         1 <0>         0.0796
     49 H18         0.7852    0.1544    0.2305 H         1 <0>         0.0797
     50 H19         0.0198    0.1975   -1.3878 H         1 <0>         0.0827
     51 H20         2.8729    0.2443   -0.7516 H         1 <0>         0.0778
     52 H21         2.1089    0.2881   -2.3718 H         1 <0>         0.0788
     53 H22         3.4921    2.4411   -1.2920 H         1 <0>         0.0900
     54 H23         2.1539    2.6297   -2.4648 H         1 <0>         0.0603
     55 H24         5.7296    2.4177    3.7771 H         1 <0>         0.4107
     56 H25         6.6051    3.6718    4.4722 H         1 <0>         0.4075
     57 H26         1.8459    6.5330    2.7789 H         1 <0>         0.4141
     58 H27         3.3636    6.3490    3.4755 H         1 <0>         0.4175
@<TRIPOS>BOND
     1    1    2 1
     2    1   34 1
     3    1   35 1
     4    1   36 1
     5    2    3 1
     6    2    4 1
     7    2    5 1
     8    3   37 1
     9    3   38 1
    10    3   39 1
    11    4   40 1
    12    4   41 1
    13    4   42 1
    14    5    6 am
    15    5   43 1
    16    6    7 2
    17    6    8 1
    18    8    9 1
    19    8   10 1
    20    8   15 1
    21   10   14 1
    22   10   11 2
    23   11   12 1
    24   11   44 1
    25   12   13 2
    26   12   45 1
    27   13   14 1
    28   13   46 1
    29   15   16 1
    30   15   23 am
    31   16   17 1
    32   16   47 1
    33   16   48 1
    34   17   18 1
    35   17   22 1
    36   17   19 1
    37   19   20 1
    38   19   49 1
    39   19   50 1
    40   20   21 1
    41   20   51 1
    42   20   52 1
    43   21   22 1
    44   21   53 1
    45   21   54 1
    46   23   24 2
    47   23   25 1
    48   25   29 1
    49   25   26 2
    50   26   27 1
    51   26   33 1
    52   27   28 2
    53   27   30 1
    54   28   29 1
    55   30   31 2
    56   30   32 am
    57   32   55 1
    58   32   56 1
    59   33   57 1
    60   33   58 1
@<TRIPOS>MOLECULE
ZINC10004168
   50    53     0     0     0
SMALL
USER_CHARGES
2-[6-amino-8-(p-tolylmethyleneaminoamino)purin-9-yl]-5-(hydroxymethyl)tetrahydrofuran-3,4-diol
@<TRIPOS>ATOM
      1 C1          2.3288   11.0641    4.3712 C.3       1 <0>        -0.1198
      2 C2          1.8763    9.7532    3.7813 C.ar      1 <0>        -0.0704
      3 C3          2.7102    9.0609    2.9210 C.ar      1 <0>        -0.1256
      4 C4          2.3029    7.8603    2.3778 C.ar      1 <0>        -0.0882
      5 C5          1.0451    7.3436    2.6980 C.ar      1 <0>        -0.0560
      6 C6          0.2063    8.0509    3.5628 C.ar      1 <0>        -0.0744
      7 C7          0.6292    9.2474    4.1030 C.ar      1 <0>        -0.1250
      8 C8          0.6025    6.0606    2.1213 C.2       1 <0>         0.0960
      9 N1         -0.5668    5.5833    2.4210 N.2       1 <0>        -0.1971
     10 N2         -0.9873    4.3644    1.8731 N.pl3     1 <0>        -0.5231
     11 C9         -2.2308    3.8567    2.1917 C.2       1 <0>         0.5944
     12 N3         -3.0944    4.4265    2.9956 N.2       1 <0>        -0.4924
     13 C10        -4.2091    3.6588    3.0762 C.ar      1 <0>        -0.0593
     14 C11        -5.4311    3.7651    3.7612 C.ar      1 <0>         0.4377
     15 N4         -6.3300    2.7985    3.6072 N.ar      1 <0>        -0.5392
     16 C12        -6.0890    1.7583    2.8302 C.ar      1 <0>         0.3325
     17 N5         -4.9590    1.6173    2.1692 N.ar      1 <0>        -0.5342
     18 C13        -4.0012    2.5335    2.2618 C.ar      1 <0>         0.2928
     19 N6         -2.7461    2.6803    1.7189 N.pl3     1 <0>        -0.4784
     20 C14        -2.0849    1.7515    0.7989 C.3       1 <0>         0.3129
     21 H1         -2.6124    0.7980    0.7732 H         1 <0>         0.1388
     22 C15        -1.9897    2.3650   -0.6212 C.3       1 <0>         0.0680
     23 H2         -2.8967    2.1666   -1.1923 H         1 <0>         0.1063
     24 C16        -0.7781    1.6063   -1.2241 C.3       1 <0>         0.0488
     25 H3         -0.1516    2.2837   -1.8043 H         1 <0>         0.0919
     26 C17        -0.0127    1.0858    0.0080 C.3       1 <0>         0.0502
     27 H4          0.0021   -0.0041    0.0020 H         1 <0>         0.1006
     28 O1         -0.7045    1.5588    1.1759 O.3       1 <0>        -0.3583
     29 C18         1.4190    1.6254   -0.0028 C.3       1 <0>         0.0789
     30 O2          2.1523    1.0518    1.0813 O.3       1 <0>        -0.5605
     31 O3         -1.2220    0.5161   -2.0343 O.3       1 <0>        -0.5454
     32 O4         -1.7291    3.7685   -0.5540 O.3       1 <0>        -0.5427
     33 N7         -5.6929    4.8527    4.5785 N.pl3     1 <0>        -0.7507
     34 H5          2.0292   11.8807    3.7144 H         1 <0>         0.0732
     35 H6          1.8707   11.1991    5.3510 H         1 <0>         0.0686
     36 H7          3.4139   11.0606    4.4748 H         1 <0>         0.0679
     37 H8          3.6824    9.4615    2.6746 H         1 <0>         0.1262
     38 H9          2.9549    7.3209    1.7067 H         1 <0>         0.1261
     39 H10        -0.7692    7.6595    3.8112 H         1 <0>         0.1363
     40 H11        -0.0166    9.7933    4.7749 H         1 <0>         0.1263
     41 H12         1.2513    5.5182    1.4496 H         1 <0>         0.1149
     42 H13        -0.4046    3.8771    1.2698 H         1 <0>         0.4037
     43 H14        -6.8470    0.9952    2.7330 H         1 <0>         0.2090
     44 H15         1.8991    1.3628   -0.9454 H         1 <0>         0.0681
     45 H16         1.3994    2.7098    0.1053 H         1 <0>         0.0523
     46 H17         3.0707    1.3497    1.1362 H         1 <0>         0.3864
     47 H18        -0.5055   -0.0289   -2.3873 H         1 <0>         0.3924
     48 H19        -1.6608    4.1977   -1.4178 H         1 <0>         0.3929
     49 H20        -6.5013    5.3356    4.2419 H         1 <0>         0.3641
     50 H21        -5.0288    5.5519    4.6829 H         1 <0>         0.3825
@<TRIPOS>BOND
     1    1    2 1
     2    1   34 1
     3    1   35 1
     4    1   36 1
     5    2    7 ar
     6    2    3 ar
     7    3    4 ar
     8    3   37 1
     9    4    5 ar
    10    4   38 1
    11    5    6 ar
    12    5    8 1
    13    6    7 ar
    14    6   39 1
    15    7   40 1
    16    8    9 2
    17    8   41 1
    18    9   10 1
    19   10   11 1
    20   10   42 1
    21   11   19 1
    22   11   12 2
    23   12   13 1
    24   13   18 ar
    25   13   14 ar
    26   14   15 ar
    27   14   33 1
    28   15   16 ar
    29   16   17 ar
    30   16   43 1
    31   17   18 ar
    32   18   19 1
    33   19   20 1
    34   20   21 1
    35   20   28 1
    36   20   22 1
    37   22   23 1
    38   22   24 1
    39   22   32 1
    40   24   25 1
    41   24   26 1
    42   24   31 1
    43   26   27 1
    44   26   28 1
    45   26   29 1
    46   29   30 1
    47   29   44 1
    48   29   45 1
    49   30   46 1
    50   31   47 1
    51   32   48 1
    52   33   49 1
    53   33   50 1
@<TRIPOS>MOLECULE
ZINC31155261
   65    67     0     0     0
SMALL
USER_CHARGES
(2R,3S,4S,5R,6S)-2-[[(2R,3R,4R)-3,4-dihydroxy-4-(hydroxymethyl)tetrahydrofuran-2-yl]oxymethyl]-6-[4-hydroxy-3-(3-methylbut-2-enyl)phenoxy]tetrahydropyran-3,4,5-triol
@<TRIPOS>ATOM
      1 C1         -1.9071    4.5913   -1.2055 C.3       1 <0>        -0.1208
      2 C2         -2.2131    3.3029   -1.9247 C.2       1 <0>        -0.1386
      3 C3         -1.7276    2.1715   -1.4770 C.2       1 <0>        -0.1509
      4 C4         -0.7512    2.1723   -0.3291 C.3       1 <0>        -0.0434
      5 C5          0.4901    1.4150   -0.7249 C.ar      1 <0>        -0.0805
      6 C6          1.6177    2.1016   -1.1321 C.ar      1 <0>        -0.1014
      7 C7          2.7580    1.4045   -1.5021 C.ar      1 <0>         0.0878
      8 C8          2.7665    0.0179   -1.4631 C.ar      1 <0>        -0.1463
      9 C9          1.6394   -0.6684   -1.0557 C.ar      1 <0>        -0.1742
     10 C10         0.4986    0.0288   -0.6859 C.ar      1 <0>         0.1282
     11 O1         -0.6114   -0.6469   -0.2855 O.3       1 <0>        -0.5056
     12 O2          3.8679    2.0802   -1.9029 O.3       1 <0>        -0.2840
     13 C11         5.0065    1.2983   -2.2694 C.3       1 <0>         0.2713
     14 H1          4.6720    0.5487   -3.0016 H         1 <0>         0.0747
     15 C12         6.1064    2.2183   -2.8056 C.3       1 <0>         0.1177
     16 H2          6.3434    3.0205   -2.0913 H         1 <0>         0.0841
     17 C13         7.3443    1.3802   -3.1396 C.3       1 <0>         0.1019
     18 H3          7.1547    0.6989   -3.9822 H         1 <0>         0.0750
     19 C14         7.7843    0.6173   -1.8863 C.3       1 <0>         0.0644
     20 H4          8.1454    1.3013   -1.1041 H         1 <0>         0.0793
     21 C15         6.6195   -0.2408   -1.3856 C.3       1 <0>         0.0726
     22 H5          6.2905   -0.9562   -2.1537 H         1 <0>         0.0826
     23 O3          5.4914    0.5962   -1.1231 O.3       1 <0>        -0.3803
     24 C16         7.0316   -0.9599   -0.0995 C.3       1 <0>         0.0718
     25 O4          5.9878   -1.8483    0.3049 O.3       1 <0>        -0.3594
     26 C17         6.2733   -2.5735    1.5026 C.3       1 <0>         0.2504
     27 H6          6.5776   -1.8029    2.2262 H         1 <0>         0.0866
     28 C18         5.0604   -3.4396    1.9088 C.3       1 <0>         0.1196
     29 H7          4.3179   -3.5948    1.1122 H         1 <0>         0.0901
     30 C19         5.6961   -4.7361    2.4637 C.3       1 <0>         0.0874
     31 C20         7.2163   -4.4964    2.3295 C.3       1 <0>         0.0287
     32 O5          7.3438   -3.5162    1.2765 O.3       1 <0>        -0.3819
     33 C21         5.2682   -5.9448    1.6291 C.3       1 <0>         0.0664
     34 O6          5.9377   -7.1139    2.1057 O.3       1 <0>        -0.6029
     35 O7          5.3379   -4.9234    3.8343 O.3       1 <0>        -0.5646
     36 O8          4.2925   -2.7833    2.9196 O.3       1 <0>        -0.5750
     37 O9          8.8948   -0.2238   -2.2044 O.3       1 <0>        -0.5898
     38 O10         8.4019    2.2381   -3.5729 O.3       1 <0>        -0.5906
     39 O11         5.6439    2.8782   -3.9857 O.3       1 <0>        -0.5788
     40 C22        -3.0776    3.3159   -3.1590 C.3       1 <0>        -0.1171
     41 H8         -2.3981    5.4271   -1.7256 H         1 <0>         0.0600
     42 H9         -0.8194    4.7551   -1.1935 H         1 <0>         0.0666
     43 H10        -2.2805    4.5322   -0.1725 H         1 <0>         0.0662
     44 H11        -2.0326    1.2210   -1.9390 H         1 <0>         0.1101
     45 H12        -0.4834    3.2088   -0.0763 H         1 <0>         0.0793
     46 H13        -1.2124    1.6892    0.5449 H         1 <0>         0.0839
     47 H14         1.6110    3.1811   -1.1628 H         1 <0>         0.1346
     48 H15         3.6547   -0.5250   -1.7510 H         1 <0>         0.1291
     49 H16         1.6461   -1.7480   -1.0253 H         1 <0>         0.1262
     50 H17        -0.6047   -1.7464   -0.2546 H         1 <0>         0.4273
     51 H18         7.9525   -1.5339   -0.2794 H         1 <0>         0.0802
     52 H19         7.2104   -0.2190    0.6937 H         1 <0>         0.0684
     53 H20         7.6143   -4.1229    3.2845 H         1 <0>         0.0766
     54 H21         7.7150   -5.4417    2.0691 H         1 <0>         0.1114
     55 H22         4.1805   -6.0840    1.7162 H         1 <0>         0.0533
     56 H23         5.5328   -5.7748    0.5750 H         1 <0>         0.0568
     57 H24         5.7550   -8.0866    1.6256 H         1 <0>         0.4199
     58 H25         5.7076   -5.8013    4.3844 H         1 <0>         0.4195
     59 H26         3.3899   -3.2647    3.3240 H         1 <0>         0.4211
     60 H27         9.3500   -0.8521   -1.4246 H         1 <0>         0.4166
     61 H28         9.3750    1.8111   -3.8572 H         1 <0>         0.4256
     62 H29         6.3014    3.5836   -4.5149 H         1 <0>         0.4247
     63 H30        -3.1876    2.2900   -3.5404 H         1 <0>         0.0591
     64 H31        -2.6076    3.9450   -3.9292 H         1 <0>         0.0660
     65 H32        -4.0686    3.7221   -2.9083 H         1 <0>         0.0630
@<TRIPOS>BOND
     1    1    2 1
     2    1   41 1
     3    1   42 1
     4    1   43 1
     5    2    3 2
     6    2   40 1
     7    3    4 1
     8    3   44 1
     9    4    5 1
    10    4   45 1
    11    4   46 1
    12    5   10 ar
    13    5    6 ar
    14    6    7 ar
    15    6   47 1
    16    7    8 ar
    17    7   12 1
    18    8    9 ar
    19    8   48 1
    20    9   10 ar
    21    9   49 1
    22   10   11 1
    23   11   50 1
    24   12   13 1
    25   13   14 1
    26   13   23 1
    27   13   15 1
    28   15   16 1
    29   15   17 1
    30   15   39 1
    31   17   18 1
    32   17   19 1
    33   17   38 1
    34   19   20 1
    35   19   21 1
    36   19   37 1
    37   21   22 1
    38   21   23 1
    39   21   24 1
    40   24   25 1
    41   24   51 1
    42   24   52 1
    43   25   26 1
    44   26   27 1
    45   26   32 1
    46   26   28 1
    47   28   29 1
    48   28   30 1
    49   28   36 1
    50   30   31 1
    51   30   33 1
    52   30   35 1
    53   31   32 1
    54   31   53 1
    55   31   54 1
    56   33   34 1
    57   33   55 1
    58   33   56 1
    59   34   57 1
    60   35   58 1
    61   36   59 1
    62   37   60 1
    63   38   61 1
    64   39   62 1
    65   40   63 1
    66   40   64 1
    67   40   65 1
@<TRIPOS>MOLECULE
ZINC36369729
   62    64     0     0     0
SMALL
USER_CHARGES

@<TRIPOS>ATOM
      1 C1         -0.0184    1.5028    0.0103 C.3       1 <0>        -0.0827
      2 C2          0.0021   -0.0041    0.0020 C.2       1 <0>        -0.1712
      3 C3          0.0086   -0.8021   -1.0728 C.2       1 <0>         0.0355
      4 O1          0.0276   -2.0928   -0.6951 O.3       1 <0>        -0.1862
      5 C4          0.0345   -2.2022    0.6492 C.ar      1 <0>         0.1097
      6 C5          0.0253   -0.8929    1.1722 C.ar      1 <0>        -0.1418
      7 C6          0.0351   -0.6831    2.5439 C.ar      1 <0>        -0.0037
      8 C7          0.0578   -1.7821    3.4028 C.ar      1 <0>        -0.1560
      9 C8          0.0681   -1.5975    4.8572 C.2       1 <0>         0.0424
     10 C9          0.0898   -2.7031    5.6441 C.2       1 <0>        -0.2033
     11 C10         0.1018   -3.9846    5.0537 C.2       1 <0>         0.5251
     12 O2          0.1212   -4.9678    5.7720 O.2       1 <0>        -0.4507
     13 O3          0.0920   -4.1489    3.7222 O.3       1 <0>        -0.2675
     14 C11         0.0707   -3.0917    2.8794 C.ar      1 <0>         0.1716
     15 C12         0.0527   -3.2899    1.5096 C.ar      1 <0>        -0.1281
     16 C13         0.1016   -2.5624    7.1445 C.3       1 <0>        -0.0838
     17 C14        -1.3080   -2.6575    7.6690 C.2       1 <0>         0.5300
     18 O4         -2.2312   -2.8231    6.9002 O.2       1 <0>        -0.5289
     19 N1         -1.5426   -2.5584    8.9925 N.am      1 <0>        -0.6128
     20 C15        -0.4274   -2.3583    9.9212 C.3       1 <0>         0.0733
     21 C16        -2.9129   -2.6507    9.5024 C.3       1 <0>         0.0872
     22 C17        -3.2442   -4.1118    9.8128 C.3       1 <0>         0.0648
     23 H1         -2.5507   -4.4900   10.5639 H         1 <0>         0.1032
     24 C18        -4.6752   -4.2083   10.3453 C.3       1 <0>         0.0503
     25 H2         -4.7433   -3.6880   11.3007 H         1 <0>         0.1194
     26 C19        -5.0497   -5.6792   10.5379 C.3       1 <0>         0.0543
     27 H3         -4.4226   -6.1150   11.3157 H         1 <0>         0.1077
     28 C20        -6.5194   -5.7816   10.9508 C.3       1 <0>         0.0830
     29 H4         -7.1465   -5.3458   10.1730 H         1 <0>         0.1113
     30 C21        -6.8938   -7.2525   11.1433 C.3       1 <0>         0.0449
     31 O5         -8.2929   -7.3563   11.4147 O.3       1 <0>        -0.5658
     32 O6         -6.7202   -5.0746   12.1763 O.3       1 <0>        -0.5425
     33 O7         -4.8489   -6.3863    9.3124 O.3       1 <0>        -0.5281
     34 O8         -5.5730   -3.6067    9.4103 O.3       1 <0>        -0.5446
     35 O9         -3.1261   -4.8907    8.6205 O.3       1 <0>        -0.5248
     36 C22         0.0555   -0.2173    5.4622 C.3       1 <0>        -0.1317
     37 C23        -0.0041   -0.3229   -2.5015 C.3       1 <0>        -0.0822
     38 H5          1.0042    1.8801    0.0026 H         1 <0>         0.0729
     39 H6         -0.5455    1.8639   -0.8728 H         1 <0>         0.0722
     40 H7         -0.5286    1.8543    0.9071 H         1 <0>         0.0692
     41 H8          0.0255    0.3206    2.9424 H         1 <0>         0.1460
     42 H9          0.0648   -4.2932    1.1100 H         1 <0>         0.1538
     43 H10         0.7056   -3.3588    7.5794 H         1 <0>         0.1131
     44 H11         0.5257   -1.5956    7.4155 H         1 <0>         0.1101
     45 H12        -0.2547   -1.2906   10.0569 H         1 <0>         0.0600
     46 H13        -0.6690   -2.8123   10.8823 H         1 <0>         0.0730
     47 H14         0.4712   -2.8230    9.5154 H         1 <0>         0.0750
     48 H15        -3.0030   -2.0567   10.4119 H         1 <0>         0.0851
     49 H16        -3.6064   -2.2726    8.7513 H         1 <0>         0.0947
     50 H17        -6.6573   -7.8093   10.2366 H         1 <0>         0.0636
     51 H18        -6.3298   -7.6644   11.9802 H         1 <0>         0.0472
     52 H19        -8.6015   -8.2629   11.5480 H         1 <0>         0.3809
     53 H20        -6.1925   -5.4091   12.9143 H         1 <0>         0.3716
     54 H21        -5.3766   -6.0518    8.5743 H         1 <0>         0.3692
     55 H22        -5.5654   -4.0199    8.5361 H         1 <0>         0.3692
     56 H23        -3.7155   -4.6097    7.9072 H         1 <0>         0.3684
     57 H24        -0.9751    0.1021    5.6170 H         1 <0>         0.0934
     58 H25         0.5779   -0.2350    6.4186 H         1 <0>         0.0850
     59 H26         0.5544    0.4793    4.7884 H         1 <0>         0.0827
     60 H27         1.0204   -0.1931   -2.8502 H         1 <0>         0.0891
     61 H28        -0.5104   -1.0581   -3.1269 H         1 <0>         0.0826
     62 H29        -0.5314    0.6292   -2.5606 H         1 <0>         0.0949
@<TRIPOS>BOND
     1    1    2 1
     2    1   38 1
     3    1   39 1
     4    1   40 1
     5    2    6 1
     6    2    3 2
     7    3    4 1
     8    3   37 1
     9    4    5 1
    10    5   15 ar
    11    5    6 ar
    12    6    7 ar
    13    7    8 ar
    14    7   41 1
    15    8   14 ar
    16    8    9 1
    17    9   10 2
    18    9   36 1
    19   10   11 1
    20   10   16 1
    21   11   12 2
    22   11   13 1
    23   13   14 1
    24   14   15 ar
    25   15   42 1
    26   16   17 1
    27   16   43 1
    28   16   44 1
    29   17   18 2
    30   17   19 am
    31   19   20 1
    32   19   21 1
    33   20   45 1
    34   20   46 1
    35   20   47 1
    36   21   22 1
    37   21   48 1
    38   21   49 1
    39   22   23 1
    40   22   24 1
    41   22   35 1
    42   24   25 1
    43   24   26 1
    44   24   34 1
    45   26   27 1
    46   26   28 1
    47   26   33 1
    48   28   29 1
    49   28   30 1
    50   28   32 1
    51   30   31 1
    52   30   50 1
    53   30   51 1
    54   31   52 1
    55   32   53 1
    56   33   54 1
    57   34   55 1
    58   35   56 1
    59   36   57 1
    60   36   58 1
    61   36   59 1
    62   37   60 1
    63   37   61 1
    64   37   62 1
@<TRIPOS>MOLECULE
ZINC44166798
   59    62     0     0     0
SMALL
USER_CHARGES

@<TRIPOS>ATOM
      1 C1         -0.0169    1.3937    0.0097 C.ar      1 <0>        -0.0346
      2 C2          1.1671    2.0963    0.0022 C.ar      1 <0>        -0.1578
      3 C3          2.3803    1.4177   -0.0131 C.ar      1 <0>         0.1479
      4 C4          2.4036    0.0278   -0.0212 C.ar      1 <0>        -0.1602
      5 C5          1.2242   -0.6825   -0.0142 C.ar      1 <0>        -0.0428
      6 C6          0.0021   -0.0041    0.0020 C.ar      1 <0>        -0.1398
      7 C7         -1.2636   -0.7608    0.0105 C.2       1 <0>         0.5131
      8 O1         -2.3249   -0.1693    0.0242 O.2       1 <0>        -0.4994
      9 O2         -1.2432   -2.1080    0.0031 O.3       1 <0>        -0.3468
     10 C8         -2.5064   -2.7761    0.0121 C.3       1 <0>         0.1196
     11 C9         -2.2863   -4.2669    0.0019 C.2       1 <0>        -0.1162
     12 C10        -1.1139   -4.8435   -0.0072 C.2       1 <0>        -0.1740
     13 C11        -1.2508   -6.3504   -0.0087 C.3       1 <0>         0.1287
     14 H1         -0.5513   -6.7978    0.6974 H         1 <0>         0.0722
     15 C12        -2.7067   -6.5981    0.4422 C.3       1 <0>        -0.0315
     16 H2         -2.7503   -6.6931    1.5271 H         1 <0>         0.1063
     17 C13        -3.3959   -5.3013    0.0073 C.3       1 <0>        -0.0741
     18 H3         -4.1679   -5.0236    0.7251 H         1 <0>         0.1044
     19 C14        -3.9766   -5.4062   -1.3924 C.3       1 <0>         0.2832
     20 H4         -3.1639   -5.3360   -2.1154 H         1 <0>         0.0696
     21 O3         -4.6777   -6.6146   -1.6116 O.3       1 <0>        -0.3136
     22 C15        -4.1705   -7.7738   -1.1506 C.2       1 <0>         0.0862
     23 C16        -3.2610   -7.8225   -0.1986 C.2       1 <0>        -0.2672
     24 O4         -4.8727   -4.3128   -1.6016 O.3       1 <0>        -0.3467
     25 C17        -5.3991   -4.2384   -2.9280 C.3       1 <0>         0.2293
     26 H5         -4.5826   -4.3023   -3.6472 H         1 <0>         0.0554
     27 C18        -6.1375   -2.9098   -3.1104 C.3       1 <0>         0.0644
     28 H6         -5.4360   -2.0840   -2.9916 H         1 <0>         0.0670
     29 C19        -6.7498   -2.8634   -4.5137 C.3       1 <0>         0.0791
     30 H7         -5.9555   -2.8960   -5.2594 H         1 <0>         0.0772
     31 C20        -7.6736   -4.0715   -4.6959 C.3       1 <0>         0.0907
     32 H8         -8.0708   -4.0766   -5.7109 H         1 <0>         0.0719
     33 C21        -6.8760   -5.3553   -4.4522 C.3       1 <0>         0.1110
     34 H9         -6.0789   -5.4339   -5.1916 H         1 <0>         0.0758
     35 O5         -6.3080   -5.3203   -3.1414 O.3       1 <0>        -0.3446
     36 C22        -7.8056   -6.5644   -4.5736 C.3       1 <0>         0.0926
     37 O6         -7.0408   -7.7664   -4.4619 O.3       1 <0>        -0.5647
     38 O7         -8.7520   -3.9933   -3.7615 O.3       1 <0>        -0.5277
     39 O8         -7.5010   -1.6575   -4.6678 O.3       1 <0>        -0.5475
     40 O9         -7.1734   -2.8009   -2.1321 O.3       1 <0>        -0.5206
     41 O10        -1.0356   -6.8709   -1.3220 O.3       1 <0>        -0.5473
     42 O11         3.5450    2.1140   -0.0204 O.3       1 <0>        -0.4967
     43 H10        -0.9589    1.9217    0.0260 H         1 <0>         0.1440
     44 H11         1.1534    3.1762    0.0077 H         1 <0>         0.1416
     45 H12         3.3482   -0.4956   -0.0334 H         1 <0>         0.1399
     46 H13         1.2432   -1.7624   -0.0209 H         1 <0>         0.1423
     47 H14        -3.0589   -2.4965    0.9091 H         1 <0>         0.0860
     48 H15        -3.0766   -2.4870   -0.8708 H         1 <0>         0.0863
     49 H16        -0.1722   -4.3148   -0.0133 H         1 <0>         0.1396
     50 H17        -4.5212   -8.7029   -1.5751 H         1 <0>         0.1639
     51 H18        -2.9025   -8.7824    0.1425 H         1 <0>         0.1279
     52 H19        -8.5497   -6.5320   -3.7778 H         1 <0>         0.0682
     53 H20        -8.3070   -6.5415   -5.5412 H         1 <0>         0.0601
     54 H21        -7.5668   -8.5750   -4.5299 H         1 <0>         0.3809
     55 H22        -9.2977   -3.2006   -3.8562 H         1 <0>         0.3835
     56 H23        -6.9778   -0.8516   -4.5587 H         1 <0>         0.3859
     57 H24        -6.8564   -2.8276   -1.2190 H         1 <0>         0.3800
     58 H25        -0.1539   -6.6919   -1.6764 H         1 <0>         0.3781
     59 H26         3.8910    2.3110    0.8608 H         1 <0>         0.3999
@<TRIPOS>BOND
     1    1    6 ar
     2    1    2 ar
     3    1   43 1
     4    2    3 ar
     5    2   44 1
     6    3    4 ar
     7    3   42 1
     8    4    5 ar
     9    4   45 1
    10    5    6 ar
    11    5   46 1
    12    6    7 1
    13    7    8 2
    14    7    9 1
    15    9   10 1
    16   10   11 1
    17   10   47 1
    18   10   48 1
    19   11   17 1
    20   11   12 2
    21   12   13 1
    22   12   49 1
    23   13   14 1
    24   13   15 1
    25   13   41 1
    26   15   16 1
    27   15   23 1
    28   15   17 1
    29   17   18 1
    30   17   19 1
    31   19   20 1
    32   19   21 1
    33   19   24 1
    34   21   22 1
    35   22   23 2
    36   22   50 1
    37   23   51 1
    38   24   25 1
    39   25   26 1
    40   25   35 1
    41   25   27 1
    42   27   28 1
    43   27   29 1
    44   27   40 1
    45   29   30 1
    46   29   31 1
    47   29   39 1
    48   31   32 1
    49   31   33 1
    50   31   38 1
    51   33   34 1
    52   33   35 1
    53   33   36 1
    54   36   37 1
    55   36   52 1
    56   36   53 1
    57   37   54 1
    58   38   55 1
    59   39   56 1
    60   40   57 1
    61   41   58 1
    62   42   59 1
@<TRIPOS>MOLECULE
ZINC04090783
   52    56     0     0     0
SMALL
USER_CHARGES
2-[trioxo-(tetrahydrofuran-2-ylmethyl)BLAHyl]acetamide
@<TRIPOS>ATOM
      1 C1         -8.3055   -2.0844    0.0792 C.ar      1 <0>        -0.1241
      2 C2         -8.1551   -3.4243   -0.2289 C.ar      1 <0>        -0.0434
      3 C3         -7.1186   -3.8409   -1.0379 C.ar      1 <0>        -0.1218
      4 C4         -6.2144   -2.9141   -1.5514 C.ar      1 <0>         0.1720
      5 C5         -6.3762   -1.5683   -1.2357 C.ar      1 <0>        -0.1998
      6 C6         -7.4124   -1.1571   -0.4275 C.ar      1 <0>        -0.0424
      7 C7         -5.2587   -0.8458   -1.9330 C.3       1 <0>         0.0954
      8 C8         -4.3764   -0.0815   -0.9394 C.3       1 <0>        -0.1195
      9 H1         -4.8790    0.1257    0.0054 H         1 <0>         0.1802
     10 C9         -3.9623    1.2113   -1.6963 C.3       1 <0>        -0.1441
     11 H2         -4.2457    2.1214   -1.1676 H         1 <0>         0.1774
     12 C10        -4.6215    1.1014   -3.0880 C.3       1 <0>         0.0616
     13 H3         -3.9186    0.6838   -3.8088 H         1 <0>         0.1663
     14 C11        -5.1122    2.4735   -3.5545 C.3       1 <0>        -0.1618
     15 C12        -5.6398    2.3663   -4.9621 C.2       1 <0>         0.5129
     16 O1         -5.6248    1.2978   -5.5356 O.2       1 <0>        -0.5512
     17 N1         -6.1283    3.4579   -5.5836 N.am      1 <0>        -0.8339
     18 C13        -2.4646    1.0636   -1.8436 C.2       1 <0>         0.5401
     19 O2         -1.7314    1.8646   -2.3824 O.2       1 <0>        -0.4268
     20 N2         -2.0746   -0.0889   -1.2871 N.am      1 <0>        -0.5476
     21 C14        -3.0664   -0.8131   -0.7559 C.2       1 <0>         0.5294
     22 O3         -2.9347   -1.8878   -0.2105 O.2       1 <0>        -0.4416
     23 C15        -0.6763   -0.5254   -1.2664 C.3       1 <0>         0.0910
     24 C16         0.0021   -0.0041    0.0020 C.3       1 <0>         0.0637
     25 H4         -0.5160   -0.3857    0.8818 H         1 <0>         0.0871
     26 C17         1.4796   -0.4507    0.0295 C.3       1 <0>        -0.1482
     27 C18         2.1925    0.8037    0.6040 C.3       1 <0>        -0.1560
     28 C19         1.3259    1.9371   -0.0002 C.3       1 <0>         0.0510
     29 O4         -0.0173    1.4282    0.0099 O.3       1 <0>        -0.3747
     30 C20        -4.4829   -1.9198   -2.6457 C.2       1 <0>         0.5221
     31 O5         -3.4935   -1.7654   -3.3300 O.2       1 <0>        -0.4415
     32 N3         -5.1007   -3.0861   -2.3764 N.am      1 <0>        -0.6334
     33 H5         -9.1184   -1.7627    0.7133 H         1 <0>         0.1492
     34 H6         -8.8525   -4.1480    0.1664 H         1 <0>         0.1502
     35 H7         -7.0078   -4.8890   -1.2740 H         1 <0>         0.1453
     36 H8         -7.5278   -0.1101   -0.1886 H         1 <0>         0.1415
     37 H9         -5.9073    2.8190   -2.8938 H         1 <0>         0.1313
     38 H10        -4.2850    3.1829   -3.5296 H         1 <0>         0.1574
     39 H11        -6.1402    4.3125   -5.1249 H         1 <0>         0.4120
     40 H12        -6.4679    3.3890   -6.4896 H         1 <0>         0.4169
     41 H13        -0.1600   -0.1323   -2.1423 H         1 <0>         0.1072
     42 H14        -0.6354   -1.6145   -1.2789 H         1 <0>         0.1101
     43 H15         1.6133   -1.3088    0.6883 H         1 <0>         0.0907
     44 H16         1.8364   -0.6732   -0.9762 H         1 <0>         0.0837
     45 H17         2.1505    0.8151    1.6932 H         1 <0>         0.0824
     46 H18         3.2222    0.8662    0.2518 H         1 <0>         0.0903
     47 H19         1.6416    2.1514   -1.0212 H         1 <0>         0.0647
     48 H20         1.3950    2.8347    0.6143 H         1 <0>         0.0900
     49 H21        -4.8064   -3.9456   -2.7163 H         1 <0>         0.4378
     50 N4         -5.7406    0.1616   -2.8643 N.4       1 <0>        -0.4895
     51 H22        -6.5451    0.6582   -2.4639 H         1 <0>         0.4396
     52 H23        -6.0161   -0.2780   -3.7503 H         1 <0>         0.4509
@<TRIPOS>BOND
     1    1    6 ar
     2    1    2 ar
     3    1   33 1
     4    2    3 ar
     5    2   34 1
     6    3    4 ar
     7    3   35 1
     8    4   32 1
     9    4    5 ar
    10    5    6 ar
    11    5    7 1
    12    6   36 1
    13    7    8 1
    14    7   30 1
    15    7   50 1
    16    8    9 1
    17    8   21 1
    18    8   10 1
    19   10   11 1
    20   10   12 1
    21   10   18 1
    22   12   13 1
    23   12   14 1
    24   12   50 1
    25   14   15 1
    26   14   37 1
    27   14   38 1
    28   15   16 2
    29   15   17 am
    30   17   39 1
    31   17   40 1
    32   18   19 2
    33   18   20 am
    34   20   21 am
    35   20   23 1
    36   21   22 2
    37   23   24 1
    38   23   41 1
    39   23   42 1
    40   24   25 1
    41   24   29 1
    42   24   26 1
    43   26   27 1
    44   26   43 1
    45   26   44 1
    46   27   28 1
    47   27   45 1
    48   27   46 1
    49   28   29 1
    50   28   47 1
    51   28   48 1
    52   30   31 2
    53   30   32 am
    54   32   49 1
    55   50   51 1
    56   50   52 1
@<TRIPOS>MOLECULE
ZINC20506750
   45    47     0     0     0
SMALL
USER_CHARGES
5-[2-[4-[2-[(5-amino-1,3,4-thiadiazol-2-yl)sulfanyl]ethyl]piperazin-1-yl]ethylsulfanyl]-1,3,4-thiadiazol-2-amine
@<TRIPOS>ATOM
      1 C1         -0.1049   -0.3708    2.5603 C.3       1 <0>         0.0182
      2 C2          0.7121   -0.8436    3.7650 C.3       1 <0>        -0.0055
      3 N1          0.1999   -0.2013    4.9835 N.4       1 <0>        -0.3981
      4 C3          0.2864    1.2621    4.8801 C.3       1 <0>         0.0019
      5 C4         -0.5306    1.7349    3.6754 C.3       1 <0>         0.0262
      6 N2         -0.0184    1.0926    2.4569 N.3       1 <0>        -0.5343
      7 C5         -0.7288    1.5792    1.2668 C.3       1 <0>         0.0700
      8 C6         -0.0127    1.0858    0.0080 C.3       1 <0>        -0.1227
      9 S1         -0.8901    1.6867   -1.4616 S.3       1 <0>         0.0523
     10 C7          0.0449    1.0429   -2.8092 C.2       1 <0>         0.0278
     11 N3          1.1319    0.2957   -2.7911 N.2       1 <0>        -0.2690
     12 N4          1.7084   -0.1025   -3.9751 N.2       1 <0>        -0.3884
     13 C8          1.1719    0.2645   -5.1223 C.2       1 <0>         0.3706
     14 S2         -0.2302    1.2208   -4.5652 S.3       1 <0>        -0.0045
     15 N5          1.5841   -0.0210   -6.4187 N.pl3     1 <0>        -0.8100
     16 C9          0.9104   -0.6879    6.1736 C.3       1 <0>         0.0126
     17 C10         0.5936   -2.1696    6.3864 C.3       1 <0>        -0.1722
     18 S3          1.4709   -2.7705    7.8560 S.3       1 <0>         0.0933
     19 C11         1.0092   -4.4675    7.9639 C.2       1 <0>         0.0073
     20 N6          0.2151   -5.1694    7.1784 N.2       1 <0>        -0.2631
     21 N7         -0.0119   -6.4994    7.4472 N.2       1 <0>        -0.3874
     22 C12         0.5650   -7.0664    8.4885 C.2       1 <0>         0.3758
     23 S4          1.4974   -5.6995    9.1617 S.3       1 <0>         0.0122
     24 N8          0.4757   -8.3783    8.9389 N.pl3     1 <0>        -0.8059
     25 H1         -1.1561   -0.6677    2.6896 H         1 <0>         0.0662
     26 H2          0.2949   -0.8275    1.6429 H         1 <0>         0.1272
     27 H3          0.6253   -1.9360    3.8609 H         1 <0>         0.1378
     28 H4          1.7681   -0.5709    3.6217 H         1 <0>         0.1402
     29 H5         -0.1134    1.7188    5.7975 H         1 <0>         0.1404
     30 H6          1.3376    1.5591    4.7508 H         1 <0>         0.1390
     31 H7         -1.5866    1.4621    3.8187 H         1 <0>         0.0651
     32 H8         -0.4439    2.8273    3.5794 H         1 <0>         0.1283
     33 H9         -1.7608    1.1985    1.2746 H         1 <0>         0.0618
     34 H10        -0.7437    2.6791    1.2728 H         1 <0>         0.1034
     35 H11         1.0193    1.4666    0.0002 H         1 <0>         0.1113
     36 H12         0.0023   -0.0141    0.0019 H         1 <0>         0.0976
     37 H13         1.0148    0.3690   -7.2753 H         1 <0>         0.4507
     38 H14         2.4796   -0.6370   -6.5880 H         1 <0>         0.4503
     39 H15         1.9938   -0.5613    6.0311 H         1 <0>         0.1419
     40 H16         0.5868   -0.1136    7.0542 H         1 <0>         0.1453
     41 H17        -0.4898   -2.2961    6.5288 H         1 <0>         0.1202
     42 H18         0.9172   -2.7439    5.5058 H         1 <0>         0.1192
     43 H19         1.0293   -8.6904    9.8367 H         1 <0>         0.4532
     44 H20        -0.1485   -9.1044    8.3975 H         1 <0>         0.4532
     45 H21        -0.8608   -0.4723    5.0903 H         1 <0>         0.4407
@<TRIPOS>BOND
     1    1    6 1
     2    1    2 1
     3    1   25 1
     4    1   26 1
     5    2    3 1
     6    2   27 1
     7    2   28 1
     8    3    4 1
     9    3   16 1
    10    3   45 1
    11    4    5 1
    12    4   29 1
    13    4   30 1
    14    5    6 1
    15    5   31 1
    16    5   32 1
    17    6    7 1
    18    7    8 1
    19    7   33 1
    20    7   34 1
    21    8    9 1
    22    8   35 1
    23    8   36 1
    24    9   10 1
    25   10   14 1
    26   10   11 2
    27   11   12 1
    28   12   13 2
    29   13   14 1
    30   13   15 1
    31   15   37 1
    32   15   38 1
    33   16   17 1
    34   16   39 1
    35   16   40 1
    36   17   18 1
    37   17   41 1
    38   17   42 1
    39   18   19 1
    40   19   23 1
    41   19   20 2
    42   20   21 1
    43   21   22 2
    44   22   23 1
    45   22   24 1
    46   24   43 1
    47   24   44 1
@<TRIPOS>MOLECULE
ZINC41069934
   41    41     0     0     0
SMALL
USER_CHARGES

@<TRIPOS>ATOM
      1 C1          0.5906    1.2483   -0.2681 C.3       1 <0>        -0.1878
      2 C2          0.2719   -0.2478   -0.3006 C.3       1 <0>        -0.0222
      3 N1          0.8824   -0.8527   -1.4920 N.4       1 <0>        -0.3843
      4 C3          2.3456   -0.7826   -1.3816 C.3       1 <0>        -0.0149
      5 C4          2.9797   -1.2872   -2.6793 C.3       1 <0>        -0.1893
      6 C5          0.4660   -2.2576   -1.5958 C.3       1 <0>        -0.0226
      7 C6         -1.0436   -2.3257   -1.8357 C.3       1 <0>         0.0923
      8 N2         -1.4589   -3.7268   -1.9393 N.pl3     1 <0>        -1.1208
      9 S1         -3.0589   -4.1289   -1.7958 S.o2      1 <0>         2.6993
     10 O1         -3.1430   -5.5346   -1.9857 O.2       1 <0>        -0.9337
     11 O2         -3.5344   -3.4893   -0.6193 O.2       1 <0>        -0.9364
     12 C7         -3.9063   -3.3861   -3.1503 C.ar      1 <0>        -0.8015
     13 C8         -4.8632   -2.4118   -2.9293 C.ar      1 <0>         0.0945
     14 C9         -5.5063   -1.8535   -4.0267 C.ar      1 <0>        -0.2266
     15 C10        -5.1741   -2.2842   -5.2965 C.ar      1 <0>         0.2472
     16 N3         -4.2573   -3.2159   -5.4766 N.ar      1 <0>        -0.5151
     17 C11        -3.6181   -3.7675   -4.4565 C.ar      1 <0>         0.5024
     18 N4         -2.6540   -4.7412   -4.6930 N.pl3     1 <0>        -0.5563
     19 N5         -2.3002   -5.0550   -5.9745 N.3       1 <0>        -0.5932
     20 Br1        -6.8233   -0.5182   -3.7848 Br        1 <0>        -0.0128
     21 H1          1.6620    1.3885   -0.1249 H         1 <0>         0.0820
     22 H2          0.2870    1.7050   -1.2101 H         1 <0>         0.0808
     23 H3          0.0497    1.7172    0.5539 H         1 <0>         0.1093
     24 H4          0.6723   -0.7241    0.5944 H         1 <0>         0.1348
     25 H5         -0.8084   -0.3886   -0.3347 H         1 <0>         0.1340
     26 H6          2.6477    0.2501   -1.2071 H         1 <0>         0.1367
     27 H7          2.6774   -1.4037   -0.5496 H         1 <0>         0.1323
     28 H8          2.7664   -2.3494   -2.7989 H         1 <0>         0.0792
     29 H9          2.5661   -0.7363   -3.5240 H         1 <0>         0.0802
     30 H10         4.0584   -1.1355   -2.6396 H         1 <0>         0.1086
     31 H11         0.9878   -2.7307   -2.4277 H         1 <0>         0.1402
     32 H12         0.7106   -2.7785   -0.6701 H         1 <0>         0.1434
     33 H13        -1.5654   -1.8526   -1.0038 H         1 <0>         0.1068
     34 H14        -1.2882   -1.8048   -2.7614 H         1 <0>         0.0885
     35 H15        -0.7967   -4.4189   -2.0920 H         1 <0>         0.4247
     36 H16        -5.1049   -2.0927   -1.9263 H         1 <0>         0.1656
     37 H17        -5.6714   -1.8531   -6.1528 H         1 <0>         0.1803
     38 H18        -2.2327   -5.1977   -3.9479 H         1 <0>         0.4098
     39 H19        -1.9916   -4.2354   -6.4754 H         1 <0>         0.3532
     40 H20        -1.5933   -5.7749   -5.9885 H         1 <0>         0.3675
     41 H21         0.5828   -0.3514   -2.3147 H         1 <0>         0.4239
@<TRIPOS>BOND
     1    1    2 1
     2    1   21 1
     3    1   22 1
     4    1   23 1
     5    2    3 1
     6    2   24 1
     7    2   25 1
     8    3    4 1
     9    3    6 1
    10    3   41 1
    11    4    5 1
    12    4   26 1
    13    4   27 1
    14    5   28 1
    15    5   29 1
    16    5   30 1
    17    6    7 1
    18    6   31 1
    19    6   32 1
    20    7    8 1
    21    7   33 1
    22    7   34 1
    23    8    9 1
    24    8   35 1
    25    9   10 2
    26    9   11 2
    27    9   12 1
    28   12   17 ar
    29   12   13 ar
    30   13   14 ar
    31   13   36 1
    32   14   15 ar
    33   14   20 1
    34   15   16 ar
    35   15   37 1
    36   16   17 ar
    37   17   18 1
    38   18   19 1
    39   18   38 1
    40   19   39 1
    41   19   40 1
@<TRIPOS>MOLECULE
ZINC51675357
   56    56     0     0     0
SMALL
USER_CHARGES

@<TRIPOS>ATOM
      1 C1         -0.0593    1.4992    0.5038 C.3       1 <0>        -0.1497
      2 C2         -0.0371   -0.0295    0.4431 C.3       1 <0>        -0.6293
      3 S1          0.7170   -0.5617   -1.1186 S.o2      1 <0>         2.6105
      4 O1         -0.1242   -0.2170   -2.2108 O.2       1 <0>        -0.9523
      5 O2          2.0980   -0.2275   -1.1341 O.2       1 <0>        -0.9526
      6 N1          0.6833   -2.2165   -1.0652 N.pl3     1 <0>        -1.1221
      7 C3         -0.5999   -2.9233   -1.0607 C.3       1 <0>         0.1160
      8 C4         -0.3694   -4.4011   -1.3829 C.3       1 <0>        -0.1402
      9 C5         -1.7095   -5.1392   -1.3782 C.3       1 <0>         0.1361
     10 N2         -1.4888   -6.5543   -1.6867 N.am      1 <0>        -0.7403
     11 C6         -2.5338   -7.4038   -1.7379 C.2       1 <0>         0.7063
     12 O3         -3.6598   -6.9958   -1.5281 O.2       1 <0>        -0.5825
     13 N3         -2.3307   -8.7056   -2.0217 N.am      1 <0>        -0.7460
     14 C7         -3.4693   -9.6312   -2.0775 C.3       1 <0>         0.1590
     15 C8         -3.7498  -10.1678   -0.6725 C.3       1 <0>        -0.1441
     16 C9         -4.9258  -11.1430   -0.7160 C.3       1 <0>         0.0597
     17 N4         -4.7208  -12.2059   -1.6887 N.4       1 <0>        -0.4912
     18 C10        -4.2508  -11.8293   -3.0122 C.3       1 <0>         0.0630
     19 C11        -3.1147  -10.8124   -2.9801 C.3       1 <0>        -0.1413
     20 C12        -3.7033  -13.1071   -3.6916 C.3       1 <0>        -0.1803
     21 C13        -5.3914  -11.3100   -3.8915 C.3       1 <0>        -0.1760
     22 C14        -6.2315  -10.3862   -0.9569 C.3       1 <0>        -0.1710
     23 C15        -5.0277  -11.8004    0.6797 C.3       1 <0>        -0.1795
     24 H1          0.9603    1.8800    0.4443 H         1 <0>         0.0743
     25 H2         -0.6416    1.8876   -0.3318 H         1 <0>         0.0741
     26 H3         -0.5124    1.8190    1.4421 H         1 <0>         0.0842
     27 H4          0.5451   -0.4179    1.2786 H         1 <0>         0.1327
     28 H5         -1.0567   -0.4103    0.5026 H         1 <0>         0.1299
     29 H6          1.5132   -2.7178   -1.0369 H         1 <0>         0.4192
     30 H7         -1.0608   -2.8335   -0.0770 H         1 <0>         0.0699
     31 H8         -1.2581   -2.4861   -1.8116 H         1 <0>         0.0872
     32 H9          0.0915   -4.4909   -2.3666 H         1 <0>         0.0826
     33 H10         0.2888   -4.8382   -0.6320 H         1 <0>         0.0800
     34 H11        -2.1704   -5.0494   -0.3945 H         1 <0>         0.0742
     35 H12        -2.3677   -4.7021   -2.1291 H         1 <0>         0.0760
     36 H13        -0.5905   -6.8797   -1.8541 H         1 <0>         0.3999
     37 H14        -1.4324   -9.0311   -2.1891 H         1 <0>         0.4013
     38 H15        -4.3357   -9.1028   -2.4649 H         1 <0>         0.1082
     39 H16        -2.8641  -10.6815   -0.2956 H         1 <0>         0.0901
     40 H17        -3.9916   -9.3364   -0.0082 H         1 <0>         0.1147
     41 H18        -4.0608  -12.8801   -1.2927 H         1 <0>         0.4243
     42 H19        -2.9230  -10.4487   -3.9929 H         1 <0>         0.1161
     43 H20        -2.2073  -11.2934   -2.6054 H         1 <0>         0.0948
     44 H21        -4.4990  -13.8483   -3.7664 H         1 <0>         0.0849
     45 H22        -3.3409  -12.8611   -4.6897 H         1 <0>         0.1071
     46 H23        -2.8842  -13.5121   -3.0973 H         1 <0>         0.0816
     47 H24        -5.7651  -10.3704   -3.4845 H         1 <0>         0.0840
     48 H25        -5.0236  -11.1464   -4.9045 H         1 <0>         0.1055
     49 H26        -6.1975  -12.0434   -3.9116 H         1 <0>         0.0836
     50 H27        -6.1325   -9.7650   -1.8470 H         1 <0>         0.0841
     51 H28        -7.0435  -11.0991   -1.0998 H         1 <0>         0.0807
     52 H29        -6.4497   -9.7549   -0.0956 H         1 <0>         0.1058
     53 H30        -5.1963  -11.0304    1.4326 H         1 <0>         0.1065
     54 H31        -5.8586  -12.5059    0.6893 H         1 <0>         0.0836
     55 H32        -4.1002  -12.3284    0.9013 H         1 <0>         0.0807
     56 H33        -5.5991  -12.7201   -1.7925 H         1 <0>         0.4264
@<TRIPOS>BOND
     1    1    2 1
     2    1   24 1
     3    1   25 1
     4    1   26 1
     5    2    3 1
     6    2   27 1
     7    2   28 1
     8    3    4 2
     9    3    5 2
    10    3    6 1
    11    6    7 1
    12    6   29 1
    13    7    8 1
    14    7   30 1
    15    7   31 1
    16    8    9 1
    17    8   32 1
    18    8   33 1
    19    9   10 1
    20    9   34 1
    21    9   35 1
    22   10   11 am
    23   10   36 1
    24   11   12 2
    25   11   13 am
    26   13   14 1
    27   13   37 1
    28   14   19 1
    29   14   15 1
    30   14   38 1
    31   15   16 1
    32   15   39 1
    33   15   40 1
    34   16   17 1
    35   16   22 1
    36   16   23 1
    37   17   18 1
    38   17   41 1
    39   17   56 1
    40   18   19 1
    41   18   20 1
    42   18   21 1
    43   19   42 1
    44   19   43 1
    45   20   44 1
    46   20   45 1
    47   20   46 1
    48   21   47 1
    49   21   48 1
    50   21   49 1
    51   22   50 1
    52   22   51 1
    53   22   52 1
    54   23   53 1
    55   23   54 1
    56   23   55 1
@<TRIPOS>MOLECULE
ZINC66446555
   52    53     0     0     0
SMALL
USER_CHARGES

@<TRIPOS>ATOM
      1 C1         -0.0187    1.5258    0.0104 C.3       1 <0>        -0.1623
      2 C2          0.0021   -0.0041    0.0020 C.3       1 <0>         0.1461
      3 H1         -1.0205   -0.3814    0.0098 H         1 <0>         0.1188
      4 C3          0.7074   -0.4901   -1.2379 C.2       1 <0>         0.5173
      5 O1          1.7039   -1.1744   -1.1398 O.2       1 <0>        -0.5237
      6 N1          0.2309   -0.1642   -2.4557 N.am      1 <0>        -0.7314
      7 C4          0.9167   -0.6367   -3.6611 C.3       1 <0>         0.1238
      8 C5          0.1767   -0.1298   -4.9006 C.3       1 <0>        -0.1632
      9 C6          0.8928   -0.6232   -6.1594 C.3       1 <0>        -0.0057
     10 N2          0.1823   -0.1366   -7.3495 N.4       1 <0>        -0.3788
     11 C7         -1.1589   -0.7326   -7.3945 C.3       1 <0>        -0.0299
     12 C8         -1.9414   -0.1389   -8.5705 C.3       1 <0>         0.1207
     13 N3         -1.1522   -0.3263   -9.7978 N.pl3     1 <0>        -0.6733
     14 C9          0.2570    0.0956   -9.7870 C.3       1 <0>         0.1199
     15 C10         0.9357   -0.5091   -8.5535 C.3       1 <0>        -0.0236
     16 C11        -1.7253   -0.8901  -10.9421 C.ar      1 <0>         0.1106
     17 C12        -2.3304   -0.0764  -11.8903 C.ar      1 <0>        -0.0888
     18 C13        -2.8953   -0.6361  -13.0199 C.ar      1 <0>        -0.1182
     19 C14        -2.8594   -2.0056  -13.2077 C.ar      1 <0>        -0.0781
     20 C15        -2.2582   -2.8205  -12.2659 C.ar      1 <0>        -0.1463
     21 C16        -1.6853   -2.2667  -11.1357 C.ar      1 <0>         0.0932
     22 F1         -1.0927   -3.0622  -10.2185 F         1 <0>        -0.1396
     23 N4          0.7106   -0.4894    1.1889 N.am      1 <0>        -0.7332
     24 C17         0.0512   -0.6335    2.3554 C.2       1 <0>         0.7109
     25 O2         -1.1318   -0.3607    2.4228 O.2       1 <0>        -0.5922
     26 N5          0.7031   -1.0799    3.4473 N.am      1 <0>        -0.8619
     27 H2          1.0039    1.9031    0.0027 H         1 <0>         0.0651
     28 H3         -0.5459    1.8868   -0.8726 H         1 <0>         0.0692
     29 H4         -0.5289    1.8773    0.9072 H         1 <0>         0.0817
     30 H5         -0.5660    0.3831   -2.5342 H         1 <0>         0.4065
     31 H6          1.9393   -0.2594   -3.6688 H         1 <0>         0.0806
     32 H7          0.9314   -1.7265   -3.6671 H         1 <0>         0.0799
     33 H8         -0.8459   -0.5071   -4.8929 H         1 <0>         0.0956
     34 H9          0.1619    0.9601   -4.8946 H         1 <0>         0.0967
     35 H10         1.9154   -0.2460   -6.1671 H         1 <0>         0.1366
     36 H11         0.9076   -1.7131   -6.1654 H         1 <0>         0.1338
     37 H12        -1.0730   -1.8116   -7.5228 H         1 <0>         0.1328
     38 H13        -1.6835   -0.5178   -6.4634 H         1 <0>         0.1384
     39 H14        -2.8988   -0.6505   -8.6689 H         1 <0>         0.1156
     40 H15        -2.1070    0.9249   -8.4004 H         1 <0>         0.0820
     41 H16         0.7530   -0.2609  -10.6897 H         1 <0>         0.1161
     42 H17         0.3133    1.1832   -9.7398 H         1 <0>         0.0823
     43 H18         1.9546   -0.1296   -8.4766 H         1 <0>         0.1390
     44 H19         0.9582   -1.5949   -8.6468 H         1 <0>         0.1324
     45 H20        -2.3599    0.9933  -11.7447 H         1 <0>         0.1351
     46 H21        -3.3660   -0.0030  -13.7575 H         1 <0>         0.1379
     47 H22        -3.3023   -2.4399  -14.0918 H         1 <0>         0.1407
     48 H23        -2.2322   -3.8898  -12.4154 H         1 <0>         0.1416
     49 H24         1.6544   -0.7070    1.1351 H         1 <0>         0.4073
     50 H25         1.6468   -1.2976    3.3936 H         1 <0>         0.4000
     51 H26         0.2285   -1.1836    4.2869 H         1 <0>         0.4198
     52 H27         0.0999    0.8679   -7.3032 H         1 <0>         0.4220
@<TRIPOS>BOND
     1    1    2 1
     2    1   27 1
     3    1   28 1
     4    1   29 1
     5    2    3 1
     6    2    4 1
     7    2   23 1
     8    4    5 2
     9    4    6 am
    10    6    7 1
    11    6   30 1
    12    7    8 1
    13    7   31 1
    14    7   32 1
    15    8    9 1
    16    8   33 1
    17    8   34 1
    18    9   10 1
    19    9   35 1
    20    9   36 1
    21   10   15 1
    22   10   11 1
    23   10   52 1
    24   11   12 1
    25   11   37 1
    26   11   38 1
    27   12   13 1
    28   12   39 1
    29   12   40 1
    30   13   14 1
    31   13   16 1
    32   14   15 1
    33   14   41 1
    34   14   42 1
    35   15   43 1
    36   15   44 1
    37   16   21 ar
    38   16   17 ar
    39   17   18 ar
    40   17   45 1
    41   18   19 ar
    42   18   46 1
    43   19   20 ar
    44   19   47 1
    45   20   21 ar
    46   20   48 1
    47   21   22 1
    48   23   24 am
    49   23   49 1
    50   24   25 2
    51   24   26 am
    52   26   50 1
    53   26   51 1
@<TRIPOS>MOLECULE
ZINC04210859
   45    48     0     0     0
SMALL
USER_CHARGES
N-[(5-bromo-1H-indol-3-yl)methyleneamino]-N'-(3-cyano-4,5,6,7-tetrahydrobenzothiophen-2-yl)-oxamide
@<TRIPOS>ATOM
      1 C1         -4.3799   15.6008   -4.4586 C.ar      1 <0>        -0.0715
      2 C2         -4.6147   15.4292   -5.8054 C.ar      1 <0>        -0.1203
      3 C3         -4.4643   14.1722   -6.3818 C.ar      1 <0>         0.0996
      4 C4         -4.0791   13.0867   -5.5777 C.ar      1 <0>        -0.0758
      5 C5         -3.8387   13.2754   -4.2187 C.ar      1 <0>        -0.0290
      6 C6         -3.9927   14.5289   -3.6661 C.ar      1 <0>        -0.1120
      7 Br1        -3.6755   14.7893   -1.8202 Br        1 <0>        -0.0473
      8 C7         -4.0063   11.9210   -6.4768 C.2       1 <0>        -0.1515
      9 C8         -4.3504   12.3658   -7.7173 C.2       1 <0>         0.1157
     10 N1         -4.6229   13.6989   -7.6677 N.pl3     1 <0>        -0.5789
     11 H1         -4.8904   14.2387   -8.4280 H         1 <0>         0.4248
     12 C9         -3.6403   10.5464   -6.1061 C.2       1 <0>         0.1673
     13 N2         -3.3330   10.2650   -4.8737 N.2       1 <0>        -0.2435
     14 N3         -2.9842    8.9549   -4.5204 N.am      1 <0>        -0.5540
     15 C10        -2.6658    8.6633   -3.2436 C.2       1 <0>         0.5350
     16 O1         -2.6814    9.5367   -2.3990 O.2       1 <0>        -0.4686
     17 C11        -2.2950    7.2706   -2.8680 C.2       1 <0>         0.5143
     18 O2         -2.2795    6.3978   -3.7122 O.2       1 <0>        -0.4731
     19 N4         -1.9767    6.9791   -1.5913 N.am      1 <0>        -0.5893
     20 C12        -1.6318    5.6838   -1.2420 C.2       1 <0>         0.1059
     21 C13        -1.2751    5.1824    0.0040 C.2       1 <0>        -0.1028
     22 C14        -0.9561    3.7688    0.1003 C.2       1 <0>        -0.0651
     23 C15        -1.0357    3.0584   -1.0479 C.2       1 <0>        -0.1848
     24 S1         -1.5323    4.2342   -2.2770 S.3       1 <0>         0.2090
     25 C16        -0.7616    1.5976   -1.2309 C.3       1 <0>        -0.0382
     26 C17        -0.0127    1.0858    0.0080 C.3       1 <0>        -0.1158
     27 C18        -0.7359    1.5829    1.2632 C.3       1 <0>        -0.1204
     28 C19        -0.5514    3.0930    1.4070 C.3       1 <0>        -0.0635
     29 C20        -1.2242    6.0319    1.1557 C.1       1 <0>         0.2600
     30 N5         -1.1838    6.7057    2.0694 N.1       1 <0>        -0.4100
     31 H2         -4.4979   16.5785   -4.0154 H         1 <0>         0.1375
     32 H3         -4.9149   16.2700   -6.4131 H         1 <0>         0.1319
     33 H4         -3.5377   12.4428   -3.6001 H         1 <0>         0.1474
     34 H5         -4.3996   11.7538   -8.6058 H         1 <0>         0.1865
     35 H6         -3.6265    9.7701   -6.8569 H         1 <0>         0.1286
     36 H7         -2.9718    8.2577   -5.1947 H         1 <0>         0.3990
     37 H8         -1.9891    7.6763   -0.9170 H         1 <0>         0.4357
     38 H9         -0.1474    1.4478   -2.1189 H         1 <0>         0.0850
     39 H10        -1.7026    1.0584   -1.3397 H         1 <0>         0.0871
     40 H11         0.0021   -0.0041    0.0020 H         1 <0>         0.0762
     41 H12         1.0091    1.4653    0.0003 H         1 <0>         0.0702
     42 H13        -1.7991    1.3572    1.1818 H         1 <0>         0.0687
     43 H14        -0.3264    1.0808    2.1397 H         1 <0>         0.0727
     44 H15         0.4947    3.3108    1.6221 H         1 <0>         0.0812
     45 H16        -1.1762    3.4647    2.2192 H         1 <0>         0.0760
@<TRIPOS>BOND
     1    1    6 ar
     2    1    2 ar
     3    1   31 1
     4    2    3 ar
     5    2   32 1
     6    3   10 1
     7    3    4 ar
     8    4    5 ar
     9    4    8 1
    10    5    6 ar
    11    5   33 1
    12    6    7 1
    13    8    9 2
    14    8   12 1
    15    9   10 1
    16    9   34 1
    17   10   11 1
    18   12   13 2
    19   12   35 1
    20   13   14 1
    21   14   15 am
    22   14   36 1
    23   15   16 2
    24   15   17 1
    25   17   18 2
    26   17   19 am
    27   19   20 1
    28   19   37 1
    29   20   24 1
    30   20   21 2
    31   21   22 1
    32   21   29 1
    33   22   28 1
    34   22   23 2
    35   23   24 1
    36   23   25 1
    37   25   26 1
    38   25   38 1
    39   25   39 1
    40   26   27 1
    41   26   40 1
    42   26   41 1
    43   27   28 1
    44   27   42 1
    45   27   43 1
    46   28   44 1
    47   28   45 1
    48   29   30 3
@<TRIPOS>MOLECULE
ZINC09644254
   44    47     0     0     0
SMALL
USER_CHARGES
2-[2-[[4-amino-5-(4-chlorophenyl)-1,2,4-triazol-3-yl]sulfanylmethyl]-6-chloro-benzoimidazol-1-yl]ethanol
@<TRIPOS>ATOM
      1 C1         -1.2346    2.1583    0.0196 C.ar      1 <0>        -0.0779
      2 C2         -1.2469    3.5375    0.0311 C.ar      1 <0>        -0.1140
      3 C3         -0.0555    4.2434    0.0240 C.ar      1 <0>        -0.0177
      4 C4          1.1545    3.5702    0.0097 C.ar      1 <0>        -0.1127
      5 C5          1.1796    2.1911    0.0026 C.ar      1 <0>        -0.0598
      6 C6         -0.0180    1.4741    0.0101 C.ar      1 <0>        -0.0232
      7 C7          0.0021   -0.0041    0.0020 C.2       1 <0>         0.2648
      8 N1          1.0347   -0.7718    0.2617 N.2       1 <0>        -0.2585
      9 N2          0.6978   -2.0081    0.1644 N.2       1 <0>        -0.2684
     10 C8         -0.5712   -2.1055   -0.1636 C.2       1 <0>         0.1188
     11 N3         -1.0596   -0.8348   -0.2733 N.pl3     1 <0>        -0.3014
     12 N4         -2.3353   -0.4655   -0.5927 N.3       1 <0>        -0.5815
     13 S1         -1.4758   -3.5976   -0.4085 S.3       1 <0>         0.0301
     14 C9         -0.1735   -4.8118   -0.0830 C.3       1 <0>        -0.0268
     15 C10        -0.7330   -6.2024   -0.2383 C.2       1 <0>         0.2872
     16 N5         -0.7435   -6.8820   -1.3476 N.2       1 <0>        -0.4570
     17 C11        -1.3186   -8.0938   -1.1353 C.ar      1 <0>         0.0499
     18 C12        -1.5816   -9.1928   -1.9575 C.ar      1 <0>        -0.0417
     19 C13        -2.1891  -10.3010   -1.4393 C.ar      1 <0>        -0.1173
     20 C14        -2.5507  -10.3491   -0.0993 C.ar      1 <0>        -0.0101
     21 C15        -2.3007   -9.2758    0.7306 C.ar      1 <0>        -0.1015
     22 C16        -1.6836   -8.1416    0.2207 C.ar      1 <0>         0.0667
     23 N6         -1.2956   -6.9326    0.7626 N.pl3     1 <0>        -0.4736
     24 C17        -1.4618   -6.5124    2.1562 C.3       1 <0>         0.1042
     25 C18        -2.8120   -5.8116    2.3200 C.3       1 <0>         0.0590
     26 O1         -2.9740   -5.4018    3.6794 O.3       1 <0>        -0.5649
     27 Cl1        -3.3217  -11.7690    0.5356 Cl        1 <0>        -0.0550
     28 Cl2        -0.0791    5.9792    0.0323 Cl        1 <0>        -0.0612
     29 H1         -2.1644    1.6089    0.0210 H         1 <0>         0.1552
     30 H2         -2.1876    4.0680    0.0418 H         1 <0>         0.1407
     31 H3          2.0804    4.1261    0.0039 H         1 <0>         0.1431
     32 H4          2.1239    1.6672   -0.0092 H         1 <0>         0.1464
     33 H5         -2.4422   -0.3601   -1.5905 H         1 <0>         0.3722
     34 H6         -3.0053   -1.1243   -0.2249 H         1 <0>         0.3783
     35 H7          0.6429   -4.6675   -0.7907 H         1 <0>         0.1407
     36 H8          0.1991   -4.6814    0.9330 H         1 <0>         0.1238
     37 H9         -1.3052   -9.1657   -3.0012 H         1 <0>         0.1441
     38 H10        -2.3905  -11.1482   -2.0782 H         1 <0>         0.1447
     39 H11        -2.5834   -9.3178    1.7722 H         1 <0>         0.1361
     40 H12        -1.4249   -7.3866    2.8061 H         1 <0>         0.1058
     41 H13        -0.6604   -5.8247    2.4263 H         1 <0>         0.1063
     42 H14        -2.8488   -4.9374    1.6701 H         1 <0>         0.0602
     43 H15        -3.6133   -6.4993    2.0499 H         1 <0>         0.0545
     44 H16        -3.8101   -4.9494    3.8568 H         1 <0>         0.3915
@<TRIPOS>BOND
     1    1    6 ar
     2    1    2 ar
     3    1   29 1
     4    2    3 ar
     5    2   30 1
     6    3    4 ar
     7    3   28 1
     8    4    5 ar
     9    4   31 1
    10    5    6 ar
    11    5   32 1
    12    6    7 1
    13    7   11 1
    14    7    8 2
    15    8    9 1
    16    9   10 2
    17   10   11 1
    18   10   13 1
    19   11   12 1
    20   12   33 1
    21   12   34 1
    22   13   14 1
    23   14   15 1
    24   14   35 1
    25   14   36 1
    26   15   23 1
    27   15   16 2
    28   16   17 1
    29   17   22 ar
    30   17   18 ar
    31   18   19 ar
    32   18   37 1
    33   19   20 ar
    34   19   38 1
    35   20   21 ar
    36   20   27 1
    37   21   22 ar
    38   21   39 1
    39   22   23 1
    40   23   24 1
    41   24   25 1
    42   24   40 1
    43   24   41 1
    44   25   26 1
    45   25   42 1
    46   25   43 1
    47   26   44 1
@<TRIPOS>MOLECULE
ZINC09116249
   46    49     0     0     0
SMALL
USER_CHARGES
2-[(4-chlorophenyl)-(hydroxymethyl)-methyl-BLAHyl]sulfanylacetamide
@<TRIPOS>ATOM
      1 C1          3.5811   -0.8470   -0.0397 C.3       1 <0>        -0.1072
      2 C2          2.3063   -0.0435   -0.0217 C.ar      1 <0>         0.1403
      3 C3          2.3679    1.3448   -0.0136 C.ar      1 <0>         0.0559
      4 C4          1.1850    2.0681    0.0019 C.ar      1 <0>        -0.0880
      5 C5         -0.0167    1.3784    0.0096 C.ar      1 <0>        -0.1148
      6 C6          0.0021   -0.0041    0.0020 C.ar      1 <0>         0.1192
      7 N1          1.1438   -0.6640   -0.0133 N.ar      1 <0>        -0.4530
      8 C7         -1.3259    2.1247    0.0199 C.3       1 <0>         0.1306
      9 O1         -2.4069    1.1901    0.0200 O.3       1 <0>        -0.5981
     10 C8          1.1943    3.5702    0.0133 C.3       1 <0>        -0.0301
     11 C9          2.5452    4.0872   -0.3935 C.ar      1 <0>        -0.2373
     12 C10         3.6588    3.2631   -0.3893 C.ar      1 <0>         0.3952
     13 N2          4.8355    3.7666   -0.7561 N.ar      1 <0>        -0.5222
     14 C11         4.9472    5.0359   -1.1211 C.ar      1 <0>         0.4163
     15 N3          3.9031    5.8521   -1.1375 N.ar      1 <0>        -0.5327
     16 C12         2.6961    5.4171   -0.7833 C.ar      1 <0>         0.1749
     17 S1          1.3106    6.5053   -0.8063 S.3       1 <0>         0.0650
     18 C13         2.1135    8.0244   -1.3753 C.3       1 <0>        -0.1576
     19 C14         1.0907    9.1269   -1.4733 C.2       1 <0>         0.5352
     20 O2         -0.0671    8.9071   -1.1867 O.2       1 <0>        -0.5365
     21 N4          1.4626   10.3570   -1.8795 N.am      1 <0>        -0.8690
     22 C15         6.2766    5.5571   -1.5215 C.ar      1 <0>        -0.0481
     23 C16         6.4170    6.8872   -1.9141 C.ar      1 <0>        -0.0547
     24 C17         7.6570    7.3687   -2.2802 C.ar      1 <0>        -0.1212
     25 C18         8.7588    6.5302   -2.2690 C.ar      1 <0>        -0.0111
     26 C19         8.6235    5.2067   -1.8853 C.ar      1 <0>        -0.1191
     27 C20         7.3888    4.7170   -1.5120 C.ar      1 <0>        -0.0515
     28 Cl1        10.3149    7.1401   -2.7382 Cl        1 <0>        -0.0602
     29 O3          3.5697    1.9672   -0.0213 O.3       1 <0>        -0.2125
     30 H1          4.4442   -0.1651   -0.0446 H         1 <0>         0.0835
     31 H2          3.6054   -1.4759   -0.9419 H         1 <0>         0.0851
     32 H3          3.6241   -1.4865    0.8543 H         1 <0>         0.0860
     33 H4         -0.9297   -0.5502    0.0084 H         1 <0>         0.1766
     34 H5         -1.3833    2.7519    0.9217 H         1 <0>         0.0655
     35 H6         -1.3919    2.7617   -0.8745 H         1 <0>         0.0648
     36 H7         -3.4460    1.5510    0.0269 H         1 <0>         0.4227
     37 H8          0.4387    3.9469   -0.6918 H         1 <0>         0.1065
     38 H9          0.9624    3.9307    1.0264 H         1 <0>         0.1110
     39 H10         2.8979    8.3144   -0.6607 H         1 <0>         0.1283
     40 H11         2.5637    7.8530   -2.3642 H         1 <0>         0.1278
     41 H12         0.7160   11.1617   -1.9510 H         1 <0>         0.4314
     42 H13         2.5127   10.5563   -2.1395 H         1 <0>         0.4252
     43 H14         5.5573    7.5408   -1.9277 H         1 <0>         0.1443
     44 H15         7.7677    8.4003   -2.5799 H         1 <0>         0.1415
     45 H16         9.4858    4.5565   -1.8786 H         1 <0>         0.1425
     46 H17         7.2843    3.6844   -1.2132 H         1 <0>         0.1495
@<TRIPOS>BOND
     1    1    2 1
     2    1   30 1
     3    1   31 1
     4    1   32 1
     5    2    7 ar
     6    2    3 ar
     7    3   29 1
     8    3    4 ar
     9    4    5 ar
    10    4   10 1
    11    5    6 ar
    12    5    8 1
    13    6    7 ar
    14    6   33 1
    15    8    9 1
    16    8   34 1
    17    8   35 1
    18    9   36 1
    19   10   11 1
    20   10   37 1
    21   10   38 1
    22   11   16 ar
    23   11   12 ar
    24   12   13 ar
    25   12   29 1
    26   13   14 ar
    27   14   15 ar
    28   14   22 1
    29   15   16 ar
    30   16   17 1
    31   17   18 1
    32   18   19 1
    33   18   39 1
    34   18   40 1
    35   19   20 2
    36   19   21 am
    37   21   41 1
    38   21   42 1
    39   22   27 ar
    40   22   23 ar
    41   23   24 ar
    42   23   43 1
    43   24   25 ar
    44   24   44 1
    45   25   26 ar
    46   25   28 1
    47   26   27 ar
    48   26   45 1
    49   27   46 1
@<TRIPOS>MOLECULE
ZINC39361627
   47    50     0     0     0
SMALL
USER_CHARGES

@<TRIPOS>ATOM
      1 C1         -0.0172    1.3776    0.0116 C.ar      1 <0>        -0.1142
      2 C2          0.2976    0.5510   -1.0513 C.ar      1 <0>        -0.1063
      3 C3          1.5029   -0.1227   -1.0708 C.ar      1 <0>        -0.1182
      4 C4          2.3999    0.0312   -0.0211 C.ar      1 <0>         0.1594
      5 C5          2.0806    0.8628    1.0450 C.ar      1 <0>        -0.1127
      6 C6          0.8732    1.5331    1.0583 C.ar      1 <0>        -0.1044
      7 N1          3.6202   -0.6493   -0.0372 N.pl3     1 <0>        -0.5823
      8 C7          3.8171   -2.1062    0.0499 C.3       1 <0>         0.3800
      9 H1          3.3392   -2.6077   -0.7916 H         1 <0>         0.0767
     10 N2          5.2797   -2.2701   -0.0134 N.pl3     1 <0>        -0.6552
     11 N3          5.8124   -0.9801   -0.1266 N.2       1 <0>        -0.2914
     12 C8          4.8834   -0.0850   -0.1447 C.2       1 <0>         0.2734
     13 S1          5.1828    1.6458   -0.2837 S.3       1 <0>         0.0058
     14 C9          6.9894    1.7716   -0.3889 C.3       1 <0>        -0.0686
     15 C10         7.3857    3.2202   -0.5131 C.ar      1 <0>        -0.0742
     16 C11         7.4984    3.8015   -1.7622 C.ar      1 <0>        -0.0861
     17 C12         7.8619    5.1301   -1.8763 C.ar      1 <0>        -0.1142
     18 C13         8.1129    5.8786   -0.7412 C.ar      1 <0>        -0.0968
     19 C14         8.0005    5.2986    0.5081 C.ar      1 <0>        -0.1106
     20 C15         7.6312    3.9701    0.6231 C.ar      1 <0>        -0.0181
     21 Cl1         7.4834    3.2426    2.1924 Cl        1 <0>        -0.0567
     22 C16         3.2705   -2.6435    1.3741 C.3       1 <0>        -0.1227
     23 C17         3.4841   -4.1339    1.4379 C.2       1 <0>         0.2062
     24 N4          2.5773   -4.9835    0.8650 N.am      1 <0>        -0.6344
     25 C18         2.7590   -6.3156    0.9160 C.2       1 <0>         0.7016
     26 O1          1.9407   -7.0523    0.4004 O.2       1 <0>        -0.5355
     27 N5          3.8341   -6.8442    1.5295 N.am      1 <0>        -0.6589
     28 C19         4.7508   -6.0409    2.1062 C.2       1 <0>         0.5504
     29 O2          5.7238   -6.5183    2.6615 O.2       1 <0>        -0.5080
     30 C20         4.5742   -4.6371    2.0558 C.2       1 <0>        -0.2861
     31 H2         -0.9588    1.9065    0.0223 H         1 <0>         0.1273
     32 H3         -0.4001    0.4318   -1.8671 H         1 <0>         0.1289
     33 H4          1.7479   -0.7687   -1.9009 H         1 <0>         0.1244
     34 H5          2.7754    0.9844    1.8628 H         1 <0>         0.1276
     35 H6          0.6242    2.1794    1.8869 H         1 <0>         0.1296
     36 H7          5.7743   -3.1040    0.0175 H         1 <0>         0.4475
     37 H8          7.4360    1.3485    0.5109 H         1 <0>         0.1099
     38 H9          7.3416    1.2224   -1.2621 H         1 <0>         0.1075
     39 H10         7.3028    3.2172   -2.6492 H         1 <0>         0.1365
     40 H11         7.9502    5.5837   -2.8524 H         1 <0>         0.1339
     41 H12         8.3972    6.9167   -0.8309 H         1 <0>         0.1356
     42 H13         8.1970    5.8833    1.3947 H         1 <0>         0.1376
     43 H14         3.7925   -2.1658    2.2032 H         1 <0>         0.1129
     44 H15         2.2046   -2.4260    1.4421 H         1 <0>         0.1028
     45 H16         3.9498   -7.8069    1.5572 H         1 <0>         0.4332
     46 H17         5.2998   -3.9776    2.5085 H         1 <0>         0.1721
     47 H18         1.7959   -4.6219    0.4182 H         1 <0>         0.4353
@<TRIPOS>BOND
     1    1    6 ar
     2    1    2 ar
     3    1   31 1
     4    2    3 ar
     5    2   32 1
     6    3    4 ar
     7    3   33 1
     8    4    5 ar
     9    4    7 1
    10    5    6 ar
    11    5   34 1
    12    6   35 1
    13    7   12 1
    14    7    8 1
    15    8    9 1
    16    8   10 1
    17    8   22 1
    18   10   11 1
    19   10   36 1
    20   11   12 2
    21   12   13 1
    22   13   14 1
    23   14   15 1
    24   14   37 1
    25   14   38 1
    26   15   20 ar
    27   15   16 ar
    28   16   17 ar
    29   16   39 1
    30   17   18 ar
    31   17   40 1
    32   18   19 ar
    33   18   41 1
    34   19   20 ar
    35   19   42 1
    36   20   21 1
    37   22   43 1
    38   22   44 1
    39   22   23 1
    40   23   30 2
    41   23   24 1
    42   24   25 am
    43   24   47 1
    44   25   26 2
    45   25   27 am
    46   27   45 1
    47   27   28 am
    48   28   29 2
    49   28   30 1
    50   30   46 1
@<TRIPOS>MOLECULE
ZINC20566498
   56    60     0     0     0
SMALL
USER_CHARGES

@<TRIPOS>ATOM
      1 C1         -0.0187    1.5258    0.0104 C.3       1 <0>        -0.1533
      2 C2          0.0021   -0.0041    0.0020 C.3       1 <0>        -0.1202
      3 C3          0.7182   -0.4975   -1.2568 C.3       1 <0>        -0.1392
      4 C4          0.7390   -2.0273   -1.2652 C.3       1 <0>         0.1032
      5 N1          1.4247   -2.4998   -2.4705 N.am      1 <0>        -0.5967
      6 C5          0.7892   -2.7485   -3.6539 C.2       1 <0>         0.5504
      7 O1         -0.3160   -2.3750   -3.9835 O.2       1 <0>        -0.4483
      8 C6          1.7452   -3.5812   -4.4636 C.3       1 <0>        -0.1519
      9 H1          1.6829   -4.6477   -4.2470 H         1 <0>         0.1455
     10 C7          1.9312   -3.2706   -5.9541 C.3       1 <0>         0.1021
     11 H2          1.3021   -3.9179   -6.5651 H         1 <0>         0.1112
     12 N2          3.3834   -3.5765   -6.1762 N.3       1 <0>        -0.6320
     13 C8          4.0858   -3.3719   -4.8713 C.3       1 <0>         0.1617
     14 C9          3.0589   -2.8695   -3.9437 C.3       1 <0>        -0.1704
     15 H3          2.9536   -1.8400   -4.2861 H         1 <0>         0.1242
     16 C10         2.7757   -2.7345   -2.5337 C.2       1 <0>         0.5786
     17 O2          3.5581   -2.8132   -1.6111 O.2       1 <0>        -0.4507
     18 C11         4.7061   -4.6714   -4.4270 C.ar      1 <0>        -0.1694
     19 C12         4.1823   -5.8977   -4.0840 C.ar      1 <0>        -0.0567
     20 C13         5.0241   -6.9286   -3.7053 C.ar      1 <0>        -0.1372
     21 C14         6.3914   -6.7236   -3.6736 C.ar      1 <0>        -0.0716
     22 C15         6.9203   -5.4972   -4.0179 C.ar      1 <0>        -0.1365
     23 C16         6.0792   -4.4542   -4.4003 C.ar      1 <0>         0.1629
     24 N3          6.3687   -3.1449   -4.7881 N.am      1 <0>        -0.6576
     25 C17         5.2584   -2.4445   -5.0813 C.2       1 <0>         0.5571
     26 O3          5.2088   -1.2885   -5.4452 O.2       1 <0>        -0.4754
     27 C18         1.6325   -1.7981   -6.2428 C.3       1 <0>        -0.0805
     28 C19         1.7039   -1.5528   -7.7279 C.ar      1 <0>        -0.0820
     29 C20         2.9042   -1.1902   -8.3107 C.ar      1 <0>        -0.0740
     30 C21         2.9722   -0.9643   -9.6718 C.ar      1 <0>        -0.1477
     31 C22         1.8349   -1.1021  -10.4543 C.ar      1 <0>         0.1015
     32 C23         0.6319   -1.4665   -9.8672 C.ar      1 <0>        -0.1480
     33 C24         0.5703   -1.6962   -8.5064 C.ar      1 <0>        -0.1004
     34 O4          1.8991   -0.8800  -11.7935 O.3       1 <0>        -0.5015
     35 H4          1.0039    1.9031    0.0027 H         1 <0>         0.0545
     36 H5         -0.5459    1.8868   -0.8726 H         1 <0>         0.0554
     37 H6         -0.5289    1.8773    0.9072 H         1 <0>         0.0577
     38 H7          0.5293   -0.3651    0.8851 H         1 <0>         0.0657
     39 H8         -1.0205   -0.3814    0.0098 H         1 <0>         0.0665
     40 H9          0.1910   -0.1364   -2.1398 H         1 <0>         0.0722
     41 H10         1.7408   -0.1202   -1.2645 H         1 <0>         0.0666
     42 H11         1.2661   -2.3884   -0.3821 H         1 <0>         0.0963
     43 H12        -0.2836   -2.4046   -1.2575 H         1 <0>         0.0942
     44 H13         3.5072   -4.5209   -6.5093 H         1 <0>         0.3620
     45 H14         3.1141   -6.0550   -4.1101 H         1 <0>         0.1234
     46 H15         4.6144   -7.8908   -3.4356 H         1 <0>         0.1332
     47 H16         7.0485   -7.5279   -3.3774 H         1 <0>         0.1350
     48 H17         7.9891   -5.3448   -3.9911 H         1 <0>         0.1307
     49 H18         7.2668   -2.7819   -4.8398 H         1 <0>         0.4192
     50 H19         0.6340   -1.5523   -5.8815 H         1 <0>         0.0920
     51 H20         2.3667   -1.1722   -5.7354 H         1 <0>         0.0796
     52 H21         3.7893   -1.0831   -7.7011 H         1 <0>         0.1324
     53 H22         3.9098   -0.6804  -10.1264 H         1 <0>         0.1252
     54 H23        -0.2549   -1.5743  -10.4742 H         1 <0>         0.1262
     55 H24        -0.3650   -1.9842   -8.0496 H         1 <0>         0.1255
     56 H25         2.1116   -1.6674  -12.3130 H         1 <0>         0.3894
@<TRIPOS>BOND
     1    1    2 1
     2    1   35 1
     3    1   36 1
     4    1   37 1
     5    2    3 1
     6    2   38 1
     7    2   39 1
     8    3    4 1
     9    3   40 1
    10    3   41 1
    11    4    5 1
    12    4   42 1
    13    4   43 1
    14    5   16 am
    15    5    6 am
    16    6    7 2
    17    6    8 1
    18    8    9 1
    19    8   14 1
    20    8   10 1
    21   10   11 1
    22   10   12 1
    23   10   27 1
    24   12   13 1
    25   12   44 1
    26   13   25 1
    27   13   14 1
    28   13   18 1
    29   14   15 1
    30   14   16 1
    31   16   17 2
    32   18   23 ar
    33   18   19 ar
    34   19   20 ar
    35   19   45 1
    36   20   21 ar
    37   20   46 1
    38   21   22 ar
    39   21   47 1
    40   22   23 ar
    41   22   48 1
    42   23   24 1
    43   24   25 am
    44   24   49 1
    45   25   26 2
    46   27   28 1
    47   27   50 1
    48   27   51 1
    49   28   33 ar
    50   28   29 ar
    51   29   30 ar
    52   29   52 1
    53   30   31 ar
    54   30   53 1
    55   31   32 ar
    56   31   34 1
    57   32   33 ar
    58   32   54 1
    59   33   55 1
    60   34   56 1
@<TRIPOS>MOLECULE
ZINC13131298
   47    50     0     0     0
SMALL
USER_CHARGES

@<TRIPOS>ATOM
      1 C1         -0.0173    1.4248    0.0099 C.3       1 <0>         0.0254
      2 O1          0.0021   -0.0041    0.0020 O.3       1 <0>        -0.3050
      3 C2          0.6062   -0.6075   -1.0564 C.ar      1 <0>         0.1106
      4 C3          1.1729    0.1590   -2.0621 C.ar      1 <0>        -0.1722
      5 C4          1.7870   -0.4560   -3.1371 C.ar      1 <0>        -0.0835
      6 C5          1.8372   -1.8356   -3.2121 C.ar      1 <0>        -0.0889
      7 C6          1.2734   -2.6062   -2.2124 C.ar      1 <0>        -0.1479
      8 C7          0.6617   -1.9961   -1.1290 C.ar      1 <0>         0.1009
      9 O2          0.1119   -2.7526   -0.1417 O.3       1 <0>        -0.3048
     10 C8          0.2064   -4.1715   -0.2827 C.3       1 <0>         0.0251
     11 C9          2.5075   -2.5009   -4.3865 C.3       1 <0>         0.2199
     12 H1          2.4500   -3.5836   -4.2747 H         1 <0>         0.0958
     13 C10         3.9774   -2.0683   -4.4520 C.3       1 <0>        -0.1400
     14 C11         4.5892   -2.5145   -5.7849 C.3       1 <0>         0.1975
     15 H2          4.4862   -3.5943   -5.8915 H         1 <0>         0.0964
     16 N1          3.8716   -1.8376   -6.8824 N.pl3     1 <0>        -0.7057
     17 C12         2.4880   -1.7907   -6.7743 C.2       1 <0>         0.5470
     18 N2          1.8391   -2.0997   -5.6242 N.pl3     1 <0>        -0.4053
     19 N3          0.4754   -1.9512   -5.8800 N.2       1 <0>        -0.3567
     20 C13         0.3641   -1.5715   -7.1336 C.2       1 <0>         0.4866
     21 N4          1.5940   -1.4714   -7.6718 N.2       1 <0>        -0.5960
     22 N5         -0.8354   -1.3099   -7.7974 N.pl3     1 <0>        -0.8250
     23 C14         6.0483   -2.1394   -5.8226 C.ar      1 <0>        -0.0835
     24 C15         6.4418   -0.9528   -6.4128 C.ar      1 <0>        -0.0846
     25 C16         7.7797   -0.6082   -6.4477 C.ar      1 <0>        -0.0980
     26 C17         8.7262   -1.4505   -5.8914 C.ar      1 <0>        -0.0198
     27 C18         8.3331   -2.6376   -5.3004 C.ar      1 <0>        -0.0964
     28 C19         6.9931   -2.9798   -5.2615 C.ar      1 <0>        -0.0135
     29 Cl1         6.4981   -4.4666   -4.5145 Cl        1 <0>        -0.0455
     30 Cl2        10.4068   -1.0177   -5.9359 Cl        1 <0>        -0.0484
     31 H3          1.0053    1.8021    0.0021 H         1 <0>         0.0555
     32 H4         -0.5445    1.7859   -0.8732 H         1 <0>         0.0556
     33 H5         -0.5275    1.7763    0.9067 H         1 <0>         0.1022
     34 H6          1.1344    1.2368   -2.0063 H         1 <0>         0.1364
     35 H7          2.2283    0.1425   -3.9203 H         1 <0>         0.1197
     36 H8          1.3136   -3.6837   -2.2735 H         1 <0>         0.1367
     37 H9         -0.2705   -4.6540    0.5704 H         1 <0>         0.1020
     38 H10        -0.2940   -4.4795   -1.2008 H         1 <0>         0.0558
     39 H11         1.2558   -4.4633   -0.3254 H         1 <0>         0.0551
     40 H12         4.0401   -0.9832   -4.3695 H         1 <0>         0.0922
     41 H13         4.5271   -2.5260   -3.6295 H         1 <0>         0.1108
     42 H14         4.3400   -1.4471   -7.6367 H         1 <0>         0.4255
     43 H15        -1.6796   -1.4047   -7.3292 H         1 <0>         0.4133
     44 H16        -0.8249   -1.0332   -8.7271 H         1 <0>         0.4130
     45 H17         5.7034   -0.2951   -6.8471 H         1 <0>         0.1458
     46 H18         8.0866    0.3186   -6.9096 H         1 <0>         0.1457
     47 H19         9.0714   -3.2953   -4.8661 H         1 <0>         0.1500
@<TRIPOS>BOND
     1    1    2 1
     2    1   31 1
     3    1   32 1
     4    1   33 1
     5    2    3 1
     6    3    8 ar
     7    3    4 ar
     8    4    5 ar
     9    4   34 1
    10    5    6 ar
    11    5   35 1
    12    6    7 ar
    13    6   11 1
    14    7    8 ar
    15    7   36 1
    16    8    9 1
    17    9   10 1
    18   10   37 1
    19   10   38 1
    20   10   39 1
    21   11   12 1
    22   11   18 1
    23   11   13 1
    24   13   14 1
    25   13   40 1
    26   13   41 1
    27   14   15 1
    28   14   16 1
    29   14   23 1
    30   16   17 1
    31   16   42 1
    32   17   21 2
    33   17   18 1
    34   18   19 1
    35   19   20 2
    36   20   21 1
    37   20   22 1
    38   22   43 1
    39   22   44 1
    40   23   28 ar
    41   23   24 ar
    42   24   25 ar
    43   24   45 1
    44   25   26 ar
    45   25   46 1
    46   26   27 ar
    47   26   30 1
    48   27   28 ar
    49   27   47 1
    50   28   29 1
@<TRIPOS>MOLECULE
ZINC11592166
   43    47     0     0     0
SMALL
USER_CHARGES
4-[1-[[4-amino-5-(2-thienyl)-1,2,4-triazol-3-yl]sulfanyl]ethyl]-9-(2-thienyl)-7-thia-3,5-diazabicyclo[4.3.0]nona-4,8,10-trien-2-one
@<TRIPOS>ATOM
      1 C1          1.6493    9.8580   -1.0861 C.3       1 <0>        -0.1496
      2 C2          2.7297    9.5834   -0.0381 C.3       1 <0>        -0.0230
      3 H1          2.2743    9.5441    0.9515 H         1 <0>         0.1557
      4 C3          3.7568   10.6855   -0.0749 C.2       1 <0>         0.4276
      5 N1          4.8870   10.5201   -0.8091 N.am      1 <0>        -0.6314
      6 H2          5.0182    9.6941   -1.3004 H         1 <0>         0.4183
      7 C4          5.8264   11.4819   -0.8728 C.2       1 <0>         0.5531
      8 O1          6.8334   11.3200   -1.5405 O.2       1 <0>        -0.4935
      9 C5          5.6276   12.6953   -0.1408 C.2       1 <0>        -0.2381
     10 C6          6.4903   13.8678   -0.0462 C.2       1 <0>         0.0205
     11 C7          6.0871   14.9127    0.7196 C.2       1 <0>        -0.1651
     12 S1          4.5138   14.3724    1.3597 S.3       1 <0>         0.1857
     13 C8          4.4331   12.7741    0.5938 C.2       1 <0>         0.1046
     14 N2          3.5473   11.7813    0.6041 N.2       1 <0>        -0.4676
     15 C9          7.7776   13.9168   -0.7704 C.2       1 <0>        -0.1105
     16 C10         8.2687   14.8960   -1.5920 C.2       1 <0>        -0.1420
     17 C11         9.5125   14.7205   -2.1612 C.2       1 <0>        -0.1618
     18 C12        10.2049   13.5836   -1.8993 C.2       1 <0>        -0.1867
     19 S2          9.0938   12.7111   -0.8080 S.3       1 <0>         0.1125
     20 S3          3.5302    8.0003   -0.3972 S.3       1 <0>         0.0110
     21 C13         2.1722    6.9064   -0.1443 C.2       1 <0>         0.1255
     22 N3          0.9533    7.2465    0.2078 N.2       1 <0>        -0.2589
     23 N4          0.2124    6.2011    0.3041 N.2       1 <0>        -0.2506
     24 C14         0.9137    5.1260    0.0189 C.2       1 <0>         0.3134
     25 N5          2.1930    5.5452   -0.2720 N.pl3     1 <0>        -0.3004
     26 N6          3.2592    4.7645   -0.6178 N.3       1 <0>        -0.5806
     27 C15         0.4258    3.7375    0.0170 C.2       1 <0>        -0.1173
     28 C16        -0.8658    3.2748    0.0265 C.2       1 <0>        -0.0932
     29 C17        -1.0805    1.9149    0.0166 C.2       1 <0>        -0.1649
     30 C18        -0.0126    1.0758    0.0080 C.2       1 <0>        -0.1646
     31 S4          1.3606    2.2165    0.0010 S.3       1 <0>         0.1232
     32 H3          0.9063    9.0608   -1.0594 H         1 <0>         0.0987
     33 H4          1.1672   10.8113   -0.8698 H         1 <0>         0.0900
     34 H5          2.1046    9.8973   -2.0756 H         1 <0>         0.0703
     35 H6          6.5974   15.8476    0.8986 H         1 <0>         0.2046
     36 H7          7.6945   15.7894   -1.7882 H         1 <0>         0.1324
     37 H8          9.9284   15.4768   -2.8104 H         1 <0>         0.1332
     38 H9         11.1780   13.2834   -2.2588 H         1 <0>         0.1844
     39 H10         3.3076    4.6410   -1.6181 H         1 <0>         0.3727
     40 H11         4.1203    5.1488   -0.2589 H         1 <0>         0.3808
     41 H12        -1.6976    3.9637    0.0371 H         1 <0>         0.1459
     42 H13        -2.0858    1.5202    0.0190 H         1 <0>         0.1431
     43 H14         0.0021   -0.0041    0.0020 H         1 <0>         0.1925
@<TRIPOS>BOND
     1    1    2 1
     2    1   32 1
     3    1   33 1
     4    1   34 1
     5    2    3 1
     6    2    4 1
     7    2   20 1
     8    4   14 2
     9    4    5 1
    10    5    6 1
    11    5    7 am
    12    7    8 2
    13    7    9 1
    14    9   13 2
    15    9   10 1
    16   10   11 2
    17   10   15 1
    18   11   12 1
    19   11   35 1
    20   12   13 1
    21   13   14 1
    22   15   19 1
    23   15   16 2
    24   16   17 1
    25   16   36 1
    26   17   18 2
    27   17   37 1
    28   18   19 1
    29   18   38 1
    30   20   21 1
    31   21   25 1
    32   21   22 2
    33   22   23 1
    34   23   24 2
    35   24   25 1
    36   24   27 1
    37   25   26 1
    38   26   39 1
    39   26   40 1
    40   27   31 1
    41   27   28 2
    42   28   29 1
    43   28   41 1
    44   29   30 2
    45   29   42 1
    46   30   31 1
    47   30   43 1
@<TRIPOS>MOLECULE
ZINC20568968
   45    48     0     0     0
SMALL
USER_CHARGES
tert-butyl (4S)-2'-amino-6'-bromo-2-methyl-5-oxo-spiro[1H-pyrrole-4,4'-indeno[2,3-d]oxazole]-3-carboxylate
@<TRIPOS>ATOM
      1 C1          1.5282    3.3554    0.0048 C.3       1 <0>        -0.1479
      2 C2          1.2404    1.8762    0.0003 C.2       1 <0>         0.2542
      3 C3          2.1950    0.9237   -0.0140 C.2       1 <0>        -0.2734
      4 C4          1.4589   -0.3924   -0.0140 C.3       1 <0>         0.0848
      5 C5          1.7981   -1.2134   -1.2246 C.ar      1 <0>        -0.0664
      6 C6          1.6909   -0.9899   -2.5786 C.ar      1 <0>        -0.0466
      7 C7          2.0977   -1.9625   -3.4770 C.ar      1 <0>        -0.0900
      8 C8          2.6138   -3.1621   -3.0166 C.ar      1 <0>        -0.0701
      9 C9          2.7255   -3.3971   -1.6629 C.ar      1 <0>        -0.0959
     10 C10         2.3165   -2.4217   -0.7486 C.ar      1 <0>         0.0475
     11 C11         2.3182   -2.4015    0.7280 C.2       1 <0>        -0.0576
     12 C12         1.8205   -1.2250    1.1830 C.2       1 <0>         0.0652
     13 N1          1.8446   -1.2612    2.5248 N.2       1 <0>        -0.5186
     14 C13         2.3385   -2.4147    2.9075 C.2       1 <0>         0.4900
     15 O1          2.6401   -3.1398    1.8196 O.3       1 <0>        -0.2037
     16 N2          2.5180   -2.8167    4.2150 N.pl3     1 <0>        -0.8225
     17 Br1         1.9484   -1.6511   -5.3362 Br        1 <0>        -0.0356
     18 C14         0.0021   -0.0041    0.0020 C.2       1 <0>         0.5552
     19 O2         -0.9543   -0.7493    0.0072 O.2       1 <0>        -0.4559
     20 N3         -0.0162    1.3450    0.0094 N.am      1 <0>        -0.6650
     21 C15         3.5966    1.1188   -0.0271 C.2       1 <0>         0.5563
     22 O3          4.0539    2.2463   -0.0253 O.2       1 <0>        -0.5133
     23 O4          4.4259    0.0544   -0.0416 O.3       1 <0>        -0.3324
     24 C16         5.8289    0.3253   -0.0543 C.3       1 <0>         0.1194
     25 C17         6.2057    1.1230    1.1958 C.3       1 <0>        -0.1850
     26 C18         6.6029   -0.9944   -0.0696 C.3       1 <0>        -0.1406
     27 C19         6.1803    1.1372   -1.3025 C.3       1 <0>        -0.1857
     28 H1          2.6162    3.5173   -0.0045 H         1 <0>         0.1304
     29 H2          1.0976    3.8100    0.9092 H         1 <0>         0.0935
     30 H3          1.0809    3.8187   -0.8870 H         1 <0>         0.0937
     31 H4          1.2888   -0.0553   -2.9408 H         1 <0>         0.1372
     32 H5          2.9306   -3.9168   -3.7212 H         1 <0>         0.1440
     33 H6          3.1284   -4.3345   -1.3088 H         1 <0>         0.1399
     34 H7          2.9418   -3.8082    4.4323 H         1 <0>         0.4437
     35 H8          2.2373   -2.1457    5.0402 H         1 <0>         0.4608
     36 H9         -0.8936    2.0083    0.0213 H         1 <0>         0.4536
     37 H10         7.2857    1.3315    1.1860 H         1 <0>         0.0696
     38 H11         5.9531    0.5392    2.0932 H         1 <0>         0.0572
     39 H12         5.6492    2.0718    1.2069 H         1 <0>         0.0862
     40 H13         7.6829   -0.7859   -0.0794 H         1 <0>         0.0786
     41 H14         6.3320   -1.5679   -0.9683 H         1 <0>         0.0663
     42 H15         6.3502   -1.5781    0.8279 H         1 <0>         0.0623
     43 H16         7.2603    1.3457   -1.3122 H         1 <0>         0.0696
     44 H17         5.6238    2.0860   -1.2915 H         1 <0>         0.0863
     45 H18         5.9095    0.5636   -2.2012 H         1 <0>         0.0607
@<TRIPOS>BOND
     1    1    2 1
     2    1   28 1
     3    1   29 1
     4    1   30 1
     5    2   20 1
     6    2    3 2
     7    3    4 1
     8    3   21 1
     9    4   12 1
    10    4    5 1
    11    4   18 1
    12    5   10 ar
    13    5    6 ar
    14    6    7 ar
    15    6   31 1
    16    7    8 ar
    17    7   17 1
    18    8    9 ar
    19    8   32 1
    20    9   10 ar
    21    9   33 1
    22   10   11 1
    23   11   15 1
    24   11   12 2
    25   12   13 1
    26   13   14 2
    27   14   15 1
    28   14   16 1
    29   16   34 1
    30   16   35 1
    31   18   19 2
    32   18   20 am
    33   20   36 1
    34   21   22 2
    35   21   23 1
    36   23   24 1
    37   24   25 1
    38   24   26 1
    39   24   27 1
    40   25   37 1
    41   25   38 1
    42   25   39 1
    43   26   40 1
    44   26   41 1
    45   26   42 1
    46   27   43 1
    47   27   44 1
    48   27   45 1
@<TRIPOS>MOLECULE
ZINC38805018
   58    61     0     0     0
SMALL
USER_CHARGES

@<TRIPOS>ATOM
      1 C1         -1.0179    0.8362    0.0012 C.3       1 <0>        -0.1529
      2 C2         -1.3604   -0.6417   -0.1973 C.3       1 <0>         0.0794
      3 O1         -0.6356   -1.1522   -1.3180 O.3       1 <0>        -0.3632
      4 C3         -0.8256   -2.4481   -1.6298 C.2       1 <0>         0.6571
      5 O2         -1.5859   -3.1271   -0.9685 O.2       1 <0>        -0.5657
      6 N1         -0.1723   -2.9924   -2.6756 N.am      1 <0>        -0.5936
      7 C4         -0.3646   -4.4033   -3.0434 C.3       1 <0>         0.1308
      8 C5         -1.0058   -4.4892   -4.4304 C.3       1 <0>        -0.0782
      9 C6         -0.2631   -3.5626   -5.3813 C.2       1 <0>        -0.0461
     10 C7          0.5097   -2.5525   -4.9269 C.2       1 <0>        -0.2605
     11 S1          1.1426   -1.7766   -6.3840 S.3       1 <0>         0.3201
     12 C8          0.4249   -2.7415   -7.5562 C.2       1 <0>         0.0404
     13 C9         -0.3081   -3.6668   -6.8302 C.2       1 <0>        -0.2360
     14 C10        -1.0963   -4.7082   -7.4964 C.2       1 <0>         0.5840
     15 O3         -2.2575   -4.4963   -7.7934 O.2       1 <0>        -0.5307
     16 N2         -0.5351   -5.9003   -7.7800 N.am      1 <0>        -0.8473
     17 N3          0.5395   -2.6366   -8.9341 N.am      1 <0>        -0.6196
     18 C11         1.3033   -1.6667   -9.4749 C.2       1 <0>         0.5263
     19 O4          1.8160   -0.8303   -8.7619 O.2       1 <0>        -0.4857
     20 C12         1.5202   -1.6216  -10.9655 C.3       1 <0>        -0.0319
     21 C13         0.1628   -1.5491  -11.6951 C.3       1 <0>        -0.1180
     22 C14        -0.0497   -0.0367  -11.9527 C.3       1 <0>        -0.1268
     23 C15         1.3783    0.4556  -12.2956 C.3       1 <0>        -0.1232
     24 C16         2.2930   -0.3469  -11.3474 C.3       1 <0>        -0.1122
     25 C17         2.2834   -2.8416  -11.4130 C.ar      1 <0>        -0.0713
     26 C18         2.4964   -3.0677  -12.7600 C.ar      1 <0>        -0.0912
     27 C19         3.1963   -4.1865  -13.1710 C.ar      1 <0>        -0.1025
     28 C20         3.6838   -5.0800  -12.2339 C.ar      1 <0>        -0.0324
     29 C21         3.4703   -4.8531  -10.8859 C.ar      1 <0>        -0.1004
     30 C22         2.7751   -3.7311  -10.4759 C.ar      1 <0>        -0.1118
     31 Cl1         4.5625   -6.4857  -12.7494 Cl        1 <0>        -0.0629
     32 C23         0.7576   -2.1920   -3.4971 C.3       1 <0>         0.2048
     33 H1          0.0519    0.9401    0.1825 H         1 <0>         0.0673
     34 H2         -1.2909    1.3958   -0.8934 H         1 <0>         0.0670
     35 H3         -1.5707    1.2257    0.8561 H         1 <0>         0.0828
     36 H4         -1.0874   -1.2012    0.6974 H         1 <0>         0.0691
     37 H5         -2.4302   -0.7455   -0.3785 H         1 <0>         0.0685
     38 H6          0.6006   -4.9095   -3.0578 H         1 <0>         0.0831
     39 H7         -1.0151   -4.8836   -2.3125 H         1 <0>         0.1054
     40 H8         -0.9441   -5.5136   -4.7975 H         1 <0>         0.0901
     41 H9         -2.0509   -4.1857   -4.3681 H         1 <0>         0.0872
     42 H10         0.3903   -6.0692   -7.5434 H         1 <0>         0.4032
     43 H11        -1.0565   -6.5893   -8.2208 H         1 <0>         0.4042
     44 H12         0.0700   -3.2613   -9.5088 H         1 <0>         0.4210
     45 H13         0.2069   -2.0943  -12.6379 H         1 <0>         0.0902
     46 H14        -0.6320   -1.9437  -11.0621 H         1 <0>         0.0712
     47 H15        -0.7249    0.1207  -12.7938 H         1 <0>         0.0777
     48 H16        -0.4244    0.4588  -11.0571 H         1 <0>         0.0708
     49 H17         1.6187    0.2342  -13.3355 H         1 <0>         0.0707
     50 H18         1.4705    1.5241  -12.1009 H         1 <0>         0.0747
     51 H19         2.5112    0.2390  -10.4545 H         1 <0>         0.0961
     52 H20         3.2197   -0.6107  -11.8571 H         1 <0>         0.0786
     53 H21         2.1155   -2.3703  -13.4914 H         1 <0>         0.1386
     54 H22         3.3624   -4.3632  -14.2234 H         1 <0>         0.1389
     55 H23         3.8503   -5.5505  -10.1540 H         1 <0>         0.1365
     56 H24         2.6125   -3.5514   -9.4235 H         1 <0>         0.1269
     57 H25         0.5684   -1.1295   -3.3440 H         1 <0>         0.1079
     58 H26         1.7875   -2.4293   -3.2304 H         1 <0>         0.0928
@<TRIPOS>BOND
     1    1    2 1
     2    1   33 1
     3    1   34 1
     4    1   35 1
     5    2    3 1
     6    2   36 1
     7    2   37 1
     8    3    4 1
     9    4    5 2
    10    4    6 am
    11    6   32 1
    12    6    7 1
    13    7    8 1
    14    7   38 1
    15    7   39 1
    16    8    9 1
    17    8   40 1
    18    8   41 1
    19    9   13 1
    20    9   10 2
    21   10   11 1
    22   10   32 1
    23   11   12 1
    24   12   13 2
    25   12   17 1
    26   13   14 1
    27   14   15 2
    28   14   16 am
    29   16   42 1
    30   16   43 1
    31   17   18 am
    32   17   44 1
    33   18   19 2
    34   18   20 1
    35   20   24 1
    36   20   21 1
    37   20   25 1
    38   21   22 1
    39   21   45 1
    40   21   46 1
    41   22   23 1
    42   22   47 1
    43   22   48 1
    44   23   24 1
    45   23   49 1
    46   23   50 1
    47   24   51 1
    48   24   52 1
    49   25   30 ar
    50   25   26 ar
    51   26   27 ar
    52   26   53 1
    53   27   28 ar
    54   27   54 1
    55   28   29 ar
    56   28   31 1
    57   29   30 ar
    58   29   55 1
    59   30   56 1
    60   32   57 1
    61   32   58 1
@<TRIPOS>MOLECULE
ZINC16010248
   57    62     0     0     0
SMALL
USER_CHARGES

@<TRIPOS>ATOM
      1 C1         -0.0159    1.5028    0.0085 C.3       1 <0>        -0.1185
      2 C2          0.0039   -0.0040    0.0007 C.ar      1 <0>        -0.0709
      3 C3          1.1560   -0.6808    0.3564 C.ar      1 <0>        -0.1096
      4 C4          1.1772   -2.0619    0.3502 C.ar      1 <0>        -0.0942
      5 C5          0.0401   -2.7705   -0.0132 C.ar      1 <0>         0.1017
      6 C6         -1.1153   -2.0882   -0.3694 C.ar      1 <0>        -0.0903
      7 C7         -1.1319   -0.7072   -0.3567 C.ar      1 <0>        -0.1089
      8 N1          0.0586   -4.1723   -0.0209 N.am      1 <0>        -0.5225
      9 C8         -0.0302   -4.8909   -1.1461 C.2       1 <0>         0.5287
     10 O1         -0.1372   -4.4327   -2.2633 O.2       1 <0>        -0.4525
     11 C9          0.0246   -6.3631   -0.8075 C.3       1 <0>        -0.1534
     12 H1          0.8500   -6.8767   -1.3004 H         1 <0>         0.1526
     13 C10        -1.3433   -7.0084   -1.1140 C.3       1 <0>         0.0916
     14 H2         -1.2236   -8.0727   -1.3167 H         1 <0>         0.1226
     15 N2         -2.1470   -6.8041    0.1204 N.3       1 <0>        -0.6154
     16 C11        -1.1816   -7.0058    1.2168 C.3       1 <0>         0.1243
     17 C12         0.1493   -6.3709    0.7418 C.3       1 <0>        -0.1340
     18 H3          1.0305   -6.9076    1.0931 H         1 <0>         0.1525
     19 C13         0.1722   -4.9005    1.0957 C.2       1 <0>         0.5262
     20 O2          0.2750   -4.4516    2.2170 O.2       1 <0>        -0.4333
     21 C14        -1.0067   -8.4634    1.5360 C.ar      1 <0>        -0.0933
     22 C15        -0.5962   -9.5523    0.7998 C.ar      1 <0>        -0.0840
     23 C16        -0.5368  -10.8049    1.3890 C.ar      1 <0>         0.0807
     24 C17        -0.8910  -10.9570    2.7192 C.ar      1 <0>        -0.1068
     25 C18        -1.3019   -9.8677    3.4588 C.ar      1 <0>        -0.1079
     26 C19        -1.3646   -8.6055    2.8733 C.ar      1 <0>         0.1479
     27 N3         -1.7435   -7.3700    3.4058 N.am      1 <0>        -0.6531
     28 C20        -1.6643   -6.3795    2.4963 C.2       1 <0>         0.5388
     29 O3         -1.9308   -5.2097    2.6745 O.2       1 <0>        -0.4602
     30 F1         -0.1351  -11.8745    0.6681 F         1 <0>        -0.1321
     31 C21        -2.0056   -6.3119   -2.3044 C.3       1 <0>        -0.0820
     32 C22        -3.2790   -7.0334   -2.6637 C.ar      1 <0>        -0.0855
     33 C23        -3.2500   -8.0719   -3.5760 C.ar      1 <0>        -0.0968
     34 C24        -4.4160   -8.7345   -3.9074 C.ar      1 <0>        -0.1432
     35 C25        -5.6167   -8.3575   -3.3234 C.ar      1 <0>         0.1036
     36 C26        -5.6430   -7.3155   -2.4079 C.ar      1 <0>        -0.1423
     37 C27        -4.4734   -6.6594   -2.0761 C.ar      1 <0>        -0.0836
     38 O4         -6.7651   -9.0075   -3.6480 O.3       1 <0>        -0.5010
     39 H4         -0.3240    1.8570    0.9922 H         1 <0>         0.0754
     40 H5          0.9812    1.8804   -0.2178 H         1 <0>         0.0701
     41 H6         -0.7193    1.8608   -0.7433 H         1 <0>         0.0703
     42 H7          2.0403   -0.1290    0.6390 H         1 <0>         0.1323
     43 H8          2.0776   -2.5899    0.6274 H         1 <0>         0.1250
     44 H9         -2.0014   -2.6369   -0.6529 H         1 <0>         0.1243
     45 H10        -2.0316   -0.1759   -0.6301 H         1 <0>         0.1325
     46 H11        -2.5366   -5.8738    0.1483 H         1 <0>         0.3502
     47 H12        -0.3207   -9.4300   -0.2373 H         1 <0>         0.1421
     48 H13        -0.8455  -11.9329    3.1794 H         1 <0>         0.1480
     49 H14        -1.5764   -9.9940    4.4957 H         1 <0>         0.1416
     50 H15        -2.0302   -7.2408    4.3234 H         1 <0>         0.4214
     51 H16        -2.2350   -5.2797   -2.0399 H         1 <0>         0.0763
     52 H17        -1.3270   -6.3262   -3.1573 H         1 <0>         0.1016
     53 H18        -2.3151   -8.3650   -4.0303 H         1 <0>         0.1268
     54 H19        -4.3930   -9.5451   -4.6206 H         1 <0>         0.1280
     55 H20        -6.5764   -7.0200   -1.9520 H         1 <0>         0.1268
     56 H21        -4.4927   -5.8511   -1.3601 H         1 <0>         0.1207
     57 H22        -6.9583   -9.7696   -3.0851 H         1 <0>         0.3908
@<TRIPOS>BOND
     1    1    2 1
     2    1   39 1
     3    1   40 1
     4    1   41 1
     5    2    7 ar
     6    2    3 ar
     7    3    4 ar
     8    3   42 1
     9    4    5 ar
    10    4   43 1
    11    5    6 ar
    12    5    8 1
    13    6    7 ar
    14    6   44 1
    15    7   45 1
    16    8   19 am
    17    8    9 am
    18    9   10 2
    19    9   11 1
    20   11   12 1
    21   11   17 1
    22   11   13 1
    23   13   14 1
    24   13   15 1
    25   13   31 1
    26   15   16 1
    27   15   46 1
    28   16   28 1
    29   16   17 1
    30   16   21 1
    31   17   18 1
    32   17   19 1
    33   19   20 2
    34   21   26 ar
    35   21   22 ar
    36   22   23 ar
    37   22   47 1
    38   23   24 ar
    39   23   30 1
    40   24   25 ar
    41   24   48 1
    42   25   26 ar
    43   25   49 1
    44   26   27 1
    45   27   28 am
    46   27   50 1
    47   28   29 2
    48   31   32 1
    49   31   51 1
    50   31   52 1
    51   32   37 ar
    52   32   33 ar
    53   33   34 ar
    54   33   53 1
    55   34   35 ar
    56   34   54 1
    57   35   36 ar
    58   35   38 1
    59   36   37 ar
    60   36   55 1
    61   37   56 1
    62   38   57 1
@<TRIPOS>MOLECULE
ZINC13625377
   49    51     0     0     0
SMALL
USER_CHARGES

@<TRIPOS>ATOM
      1 C1         -1.2270    1.1814    0.1815 C.3       1 <0>        -0.1162
      2 C2         -0.5371   -0.1550    0.0860 C.ar      1 <0>        -0.1055
      3 C3         -0.5138   -0.8367   -1.1151 C.ar      1 <0>        -0.0737
      4 C4          0.1190   -2.0637   -1.2034 C.ar      1 <0>        -0.1006
      5 C5          0.7301   -2.6116   -0.0892 C.ar      1 <0>        -0.0777
      6 C6          0.7102   -1.9343    1.1139 C.ar      1 <0>        -0.1118
      7 C7          0.0806   -0.6996    1.2040 C.ar      1 <0>         0.1571
      8 N1          0.0639   -0.0082    2.4207 N.am      1 <0>        -0.6732
      9 C8         -0.0193   -0.6885    3.5812 C.2       1 <0>         0.5145
     10 O1          0.0058   -1.9011    3.5765 O.2       1 <0>        -0.5145
     11 C9         -0.1436    0.0576    4.8847 C.3       1 <0>        -0.1356
     12 C10        -0.2198   -0.9430    6.0397 C.3       1 <0>        -0.1197
     13 C11        -0.3460   -0.1855    7.3631 C.3       1 <0>         0.1356
     14 N2         -0.4190   -1.1436    8.4690 N.am      1 <0>        -0.7398
     15 C12        -0.5341   -0.7015    9.7370 C.2       1 <0>         0.7133
     16 O2         -0.6683    0.4868    9.9568 O.2       1 <0>        -0.5595
     17 N3         -0.5004   -1.5767   10.7614 N.am      1 <0>        -0.5738
     18 C13        -0.4544   -3.0265   10.5198 C.3       1 <0>         0.0936
     19 C14        -1.3803   -3.7159   11.4890 C.2       1 <0>         0.5131
     20 O3         -1.9056   -4.7628   11.1739 O.2       1 <0>        -0.5121
     21 N4         -1.6312   -3.1843   12.7002 N.am      1 <0>        -0.6542
     22 C15        -1.0785   -1.9530   13.0696 C.ar      1 <0>         0.1248
     23 C16        -0.5023   -1.1332   12.0937 C.ar      1 <0>         0.1299
     24 C17         0.0481    0.0867   12.4411 C.ar      1 <0>        -0.0880
     25 C18         0.0347    0.4941   13.7637 C.ar      1 <0>        -0.1169
     26 C19        -0.5258   -0.3150   14.7345 C.ar      1 <0>        -0.1015
     27 C20        -1.0917   -1.5380   14.3912 C.ar      1 <0>        -0.1319
     28 Br1         0.1483   -2.9942   -2.8493 Br        1 <0>        -0.0486
     29 H1         -0.5163    1.9746   -0.0506 H         1 <0>         0.0757
     30 H2         -2.0537    1.2150   -0.5282 H         1 <0>         0.0755
     31 H3         -1.6101    1.3211    1.1924 H         1 <0>         0.0670
     32 H4         -0.9902   -0.4115   -1.9861 H         1 <0>         0.1371
     33 H5          1.2227   -3.5701   -0.1607 H         1 <0>         0.1365
     34 H6          1.1869   -2.3626    1.9832 H         1 <0>         0.1485
     35 H7          0.1122    0.9606    2.4288 H         1 <0>         0.4141
     36 H8          0.7253    0.7018    5.0189 H         1 <0>         0.1045
     37 H9         -1.0481    0.6657    4.8705 H         1 <0>         0.1045
     38 H10        -1.0887   -1.5872    5.9056 H         1 <0>         0.0812
     39 H11         0.6847   -1.5511    6.0539 H         1 <0>         0.0815
     40 H12         0.5229    0.4587    7.4972 H         1 <0>         0.0732
     41 H13        -1.2505    0.4226    7.3489 H         1 <0>         0.0735
     42 H14        -0.3844   -2.0960    8.2887 H         1 <0>         0.3992
     43 H15        -0.7732   -3.2364    9.4988 H         1 <0>         0.1226
     44 H16         0.5631   -3.3887   10.6672 H         1 <0>         0.1147
     45 H17        -2.2018   -3.6602   13.3238 H         1 <0>         0.4167
     46 H18         0.4863    0.7193   11.6833 H         1 <0>         0.1467
     47 H19         0.4637    1.4465   14.0382 H         1 <0>         0.1326
     48 H20        -0.5314    0.0079   15.7651 H         1 <0>         0.1324
     49 H21        -1.5288   -2.1678   15.1519 H         1 <0>         0.1350
@<TRIPOS>BOND
     1    1    2 1
     2    1   29 1
     3    1   30 1
     4    1   31 1
     5    2    7 ar
     6    2    3 ar
     7    3    4 ar
     8    3   32 1
     9    4    5 ar
    10    4   28 1
    11    5    6 ar
    12    5   33 1
    13    6    7 ar
    14    6   34 1
    15    7    8 1
    16    8    9 am
    17    8   35 1
    18    9   10 2
    19    9   11 1
    20   11   12 1
    21   11   36 1
    22   11   37 1
    23   12   13 1
    24   12   38 1
    25   12   39 1
    26   13   14 1
    27   13   40 1
    28   13   41 1
    29   14   15 am
    30   14   42 1
    31   15   16 2
    32   15   17 am
    33   17   23 1
    34   17   18 1
    35   18   19 1
    36   18   43 1
    37   18   44 1
    38   19   20 2
    39   19   21 am
    40   21   22 1
    41   21   45 1
    42   22   27 ar
    43   22   23 ar
    44   23   24 ar
    45   24   25 ar
    46   24   46 1
    47   25   26 ar
    48   25   47 1
    49   26   27 ar
    50   26   48 1
    51   27   49 1
@<TRIPOS>MOLECULE
ZINC12243292
   67    71     0     0     0
SMALL
USER_CHARGES
N-[4-[4-[2-[(3S)-2,3-dihydro-1,4-benzodioxin-3-yl]ethylamino]-1-piperidyl]phenyl]benzenesulfonamide
@<TRIPOS>ATOM
      1 C1          0.2175  -10.2539    2.0713 C.ar      1 <0>        -0.0591
      2 C2         -0.3995   -9.5974    1.0229 C.ar      1 <0>        -0.1415
      3 C3          0.0409   -9.7963   -0.2722 C.ar      1 <0>        -0.0184
      4 C4          1.0981  -10.6521   -0.5190 C.ar      1 <0>        -0.6757
      5 C5          1.7115  -11.3130    0.5289 C.ar      1 <0>        -0.0168
      6 C6          1.2747  -11.1097    1.8246 C.ar      1 <0>        -0.1377
      7 S1          1.6592  -10.9061   -2.1698 S.o2      1 <0>         2.6887
      8 O1          0.6071  -10.4827   -3.0260 O.2       1 <0>        -0.9474
      9 O2          2.1986  -12.2199   -2.2179 O.2       1 <0>        -0.9435
     10 N1          2.9228   -9.8661   -2.4229 N.pl3     1 <0>        -1.0575
     11 C7          2.7190   -8.4835   -2.3395 C.ar      1 <0>         0.1330
     12 C8          3.6101   -7.6922   -1.6268 C.ar      1 <0>        -0.1012
     13 C9          3.4091   -6.3285   -1.5444 C.ar      1 <0>        -0.1150
     14 C10         2.3159   -5.7485   -2.1743 C.ar      1 <0>         0.0888
     15 C11         1.4220   -6.5405   -2.8826 C.ar      1 <0>        -0.1419
     16 C12         1.6256   -7.9036   -2.9690 C.ar      1 <0>        -0.1237
     17 N2          2.1119   -4.3660   -2.0905 N.pl3     1 <0>        -0.4871
     18 C13         0.9043   -3.9668   -2.8244 C.3       1 <0>         0.0492
     19 C14         0.7928   -2.4405   -2.8341 C.3       1 <0>        -0.1397
     20 C15         0.7288   -1.9292   -1.3922 C.3       1 <0>         0.0259
     21 C16         1.9738   -2.3994   -0.6351 C.3       1 <0>        -0.1380
     22 C17         2.0519   -3.9269   -0.6905 C.3       1 <0>         0.0566
     23 C18         0.0463    0.0462   -0.1696 C.3       1 <0>        -0.0037
     24 C19         0.0144    1.5754   -0.2076 C.3       1 <0>        -0.1399
     25 C20        -0.6462    2.1036    1.0674 C.3       1 <0>         0.0542
     26 H1         -0.1250    1.7115    1.9408 H         1 <0>         0.0955
     27 C21        -0.5960    3.6374    1.0790 C.3       1 <0>         0.0273
     28 O3         -1.2328    4.0975    2.2759 O.3       1 <0>        -0.2997
     29 C22        -2.4274    3.5265    2.5912 C.ar      1 <0>         0.0487
     30 C23        -3.2600    4.1519    3.5075 C.ar      1 <0>        -0.1098
     31 C24        -4.4743    3.5826    3.8406 C.ar      1 <0>        -0.1046
     32 C25        -4.8628    2.3887    3.2617 C.ar      1 <0>        -0.1112
     33 C26        -4.0386    1.7612    2.3470 C.ar      1 <0>        -0.1102
     34 C27        -2.8188    2.3276    2.0075 C.ar      1 <0>         0.0418
     35 O4         -2.0192    1.6995    1.1027 O.3       1 <0>        -0.3113
     36 H2         -0.1262  -10.0979    3.0832 H         1 <0>         0.1333
     37 H3         -1.2255   -8.9288    1.2156 H         1 <0>         0.1324
     38 H4         -0.4412   -9.2834   -1.0913 H         1 <0>         0.1391
     39 H5          2.5346  -11.9849    0.3356 H         1 <0>         0.1409
     40 H6          1.7570  -11.6223    2.6437 H         1 <0>         0.1366
     41 H7          3.8042  -10.2149   -2.6290 H         1 <0>         0.4301
     42 H8          4.4606   -8.1432   -1.1372 H         1 <0>         0.1353
     43 H9          4.1020   -5.7130   -0.9899 H         1 <0>         0.1314
     44 H10         0.5693   -6.0901   -3.3688 H         1 <0>         0.1341
     45 H11         0.9325   -8.5191   -3.5232 H         1 <0>         0.1602
     46 H12         0.0264   -4.3920   -2.3380 H         1 <0>         0.0597
     47 H13         0.9647   -4.3330   -3.8493 H         1 <0>         0.1070
     48 H14        -0.1118   -2.1451   -3.3655 H         1 <0>         0.0985
     49 H15         1.6638   -2.0152   -3.3327 H         1 <0>         0.0995
     50 H16        -0.1637   -2.3224   -0.9056 H         1 <0>         0.1387
     51 H17         2.8639   -1.9734   -1.0981 H         1 <0>         0.0994
     52 H18         1.9123   -2.0747    0.4036 H         1 <0>         0.0952
     53 H19         1.1686   -4.3523   -0.2140 H         1 <0>         0.0564
     54 H20         2.9456   -4.2640   -0.1655 H         1 <0>         0.1036
     55 H21         0.6167   -0.2839    0.6987 H         1 <0>         0.1329
     56 H22        -0.9720   -0.3369   -0.1024 H         1 <0>         0.1394
     57 H23         1.0327    1.9585   -0.2747 H         1 <0>         0.1120
     58 H24        -0.5559    1.9054   -1.0758 H         1 <0>         0.1033
     59 H25         0.4414    3.9714    1.0626 H         1 <0>         0.1251
     60 H26        -1.1227    4.0290    0.2087 H         1 <0>         0.0817
     61 H27        -2.9588    5.0845    3.9612 H         1 <0>         0.1396
     62 H28        -5.1211    4.0713    4.5542 H         1 <0>         0.1388
     63 H29        -5.8120    1.9458    3.5248 H         1 <0>         0.1377
     64 H30        -4.3447    0.8289    1.8957 H         1 <0>         0.1345
     65 N3          0.6843   -0.4547   -1.4016 N.4       1 <0>        -0.5170
     66 H31         0.1448   -0.1373   -2.2155 H         1 <0>         0.4336
     67 H32         1.6412   -0.0873   -1.4609 H         1 <0>         0.4317
@<TRIPOS>BOND
     1    1    6 ar
     2    1    2 ar
     3    1   36 1
     4    2    3 ar
     5    2   37 1
     6    3    4 ar
     7    3   38 1
     8    4    5 ar
     9    4    7 1
    10    5    6 ar
    11    5   39 1
    12    6   40 1
    13    7    8 2
    14    7    9 2
    15    7   10 1
    16   10   11 1
    17   10   41 1
    18   11   16 ar
    19   11   12 ar
    20   12   13 ar
    21   12   42 1
    22   13   14 ar
    23   13   43 1
    24   14   15 ar
    25   14   17 1
    26   15   16 ar
    27   15   44 1
    28   16   45 1
    29   17   22 1
    30   17   18 1
    31   18   19 1
    32   18   46 1
    33   18   47 1
    34   19   20 1
    35   19   48 1
    36   19   49 1
    37   20   21 1
    38   20   50 1
    39   20   65 1
    40   21   22 1
    41   21   51 1
    42   21   52 1
    43   22   53 1
    44   22   54 1
    45   23   24 1
    46   23   55 1
    47   23   56 1
    48   23   65 1
    49   24   25 1
    50   24   57 1
    51   24   58 1
    52   25   26 1
    53   25   35 1
    54   25   27 1
    55   27   28 1
    56   27   59 1
    57   27   60 1
    58   28   29 1
    59   29   34 ar
    60   29   30 ar
    61   30   31 ar
    62   30   61 1
    63   31   32 ar
    64   31   62 1
    65   32   33 ar
    66   32   63 1
    67   33   34 ar
    68   33   64 1
    69   34   35 1
    70   65   66 1
    71   65   67 1
@<TRIPOS>MOLECULE
ZINC39634565
   70    73     0     0     0
SMALL
USER_CHARGES

@<TRIPOS>ATOM
      1 C1          0.5831    1.6789   -0.2676 C.3       1 <0>        -0.1267
      2 C2          0.4665    0.1772   -0.2181 C.ar      1 <0>        -0.0551
      3 C3         -0.3352   -0.4822   -1.1342 C.ar      1 <0>        -0.1077
      4 C4         -0.4482   -1.8554   -1.0961 C.ar      1 <0>        -0.0677
      5 C5          0.2487   -2.5854   -0.1303 C.ar      1 <0>        -0.1594
      6 C6          1.0575   -1.9167    0.7928 C.ar      1 <0>         0.1298
      7 C7          1.1657   -0.5365    0.7394 C.ar      1 <0>         0.0611
      8 F1          1.9506    0.1137    1.6261 F         1 <0>        -0.1164
      9 F2          1.7350   -2.6140    1.7309 F         1 <0>        -0.1078
     10 C8          0.1309   -4.0570   -0.0845 C.2       1 <0>         0.5929
     11 O1          0.1689   -4.6369    0.9833 O.2       1 <0>        -0.5091
     12 N1         -0.0187   -4.7569   -1.2265 N.am      1 <0>        -0.6183
     13 C9          0.0197   -4.2456   -2.6169 C.3       1 <0>         0.1038
     14 C10         0.7786   -5.3319   -3.4115 C.3       1 <0>        -0.1146
     15 H1          1.8365   -5.0794   -3.4843 H         1 <0>         0.1128
     16 C11         0.5907   -6.6201   -2.5929 C.3       1 <0>        -0.0720
     17 C12        -0.2523   -6.2133   -1.3757 C.3       1 <0>         0.1091
     18 C13         1.9432   -7.1570   -2.1346 C.3       1 <0>        -0.1348
     19 C14         1.7346   -8.4683   -1.3716 C.3       1 <0>        -0.0115
     20 N2          1.0686   -9.4432   -2.2438 N.4       1 <0>        -0.5044
     21 C15        -0.2696   -8.9601   -2.6051 C.3       1 <0>        -0.0081
     22 C16        -0.1458   -7.6695   -3.4199 C.3       1 <0>        -0.1463
     23 C17         0.1820   -5.4893   -4.7864 C.2       1 <0>         0.5195
     24 O2         -1.0005   -5.2841   -4.9614 O.2       1 <0>        -0.5193
     25 N3          0.9624   -5.8582   -5.8215 N.am      1 <0>        -0.7276
     26 C18         0.3823   -6.0112   -7.1580 C.3       1 <0>         0.1204
     27 C19         1.4746   -6.4333   -8.1427 C.3       1 <0>        -0.0833
     28 C20         0.8779   -6.5908   -9.5176 C.ar      1 <0>        -0.0910
     29 C21         0.3653   -7.8129   -9.9111 C.ar      1 <0>        -0.1096
     30 C22        -0.1831   -7.9625  -11.1713 C.ar      1 <0>        -0.1717
     31 C23        -0.2202   -6.8859  -12.0429 C.ar      1 <0>         0.1058
     32 C24         0.2954   -5.6557  -11.6466 C.ar      1 <0>         0.1051
     33 C25         0.8393   -5.5113  -10.3804 C.ar      1 <0>        -0.1661
     34 O3          0.2612   -4.5961  -12.4985 O.3       1 <0>        -0.3035
     35 C26         0.8086   -3.3643  -12.0240 C.3       1 <0>         0.0254
     36 O4         -0.7590   -7.0315  -13.2831 O.3       1 <0>        -0.3042
     37 C27        -1.2686   -8.3229  -13.6216 C.3       1 <0>         0.0249
     38 H2          1.4079    1.9578   -0.9234 H         1 <0>         0.0883
     39 H3         -0.3451    2.1029   -0.6508 H         1 <0>         0.0854
     40 H4          0.7708    2.0621    0.7354 H         1 <0>         0.0804
     41 H5         -0.8743    0.0815   -1.8812 H         1 <0>         0.1519
     42 H6         -1.0750   -2.3664   -1.8119 H         1 <0>         0.1472
     43 H7         -0.9914   -4.1267   -3.0061 H         1 <0>         0.1041
     44 H8          0.5578   -3.2985   -2.6588 H         1 <0>         0.0982
     45 H9          0.0841   -6.7457   -0.4860 H         1 <0>         0.0920
     46 H10        -1.3075   -6.4122   -1.5629 H         1 <0>         0.0883
     47 H11         2.5762   -7.3382   -3.0033 H         1 <0>         0.0970
     48 H12         2.4216   -6.4278   -1.4808 H         1 <0>         0.1184
     49 H13         2.7007   -8.8630   -1.0570 H         1 <0>         0.1404
     50 H14         1.1150   -8.2832   -0.4942 H         1 <0>         0.1347
     51 H15         1.6158   -9.5718   -3.0817 H         1 <0>         0.4274
     52 H16        -0.7808   -9.7173   -3.1996 H         1 <0>         0.1397
     53 H17        -0.8417   -8.7636   -1.6983 H         1 <0>         0.1336
     54 H18        -1.1404   -7.3016   -3.6722 H         1 <0>         0.1277
     55 H19         0.4119   -7.8689   -4.3349 H         1 <0>         0.0971
     56 H20         1.9081   -6.0223   -5.6815 H         1 <0>         0.4012
     57 H21        -0.3966   -6.7732   -7.1309 H         1 <0>         0.0744
     58 H22        -0.0484   -5.0624   -7.4780 H         1 <0>         0.0757
     59 H23         2.2536   -5.6714   -8.1698 H         1 <0>         0.0803
     60 H24         1.9054   -7.3821   -7.8228 H         1 <0>         0.0783
     61 H25         0.3936   -8.6528   -9.2327 H         1 <0>         0.1243
     62 H26        -0.5823   -8.9184  -11.4765 H         1 <0>         0.1375
     63 H27         1.2367   -4.5566  -10.0690 H         1 <0>         0.1357
     64 H28         1.8602   -3.5061  -11.7749 H         1 <0>         0.0555
     65 H29         0.7182   -2.6039  -12.7997 H         1 <0>         0.1045
     66 H30         0.2648   -3.0434  -11.1355 H         1 <0>         0.0550
     67 H31        -2.0610   -8.5950  -12.9243 H         1 <0>         0.0560
     68 H32        -1.6683   -8.3014  -14.6354 H         1 <0>         0.1046
     69 H33        -0.4653   -9.0572  -13.5632 H         1 <0>         0.0563
     70 H34         0.9871  -10.3249   -1.7599 H         1 <0>         0.4346
@<TRIPOS>BOND
     1    1    2 1
     2    1   38 1
     3    1   39 1
     4    1   40 1
     5    2    7 ar
     6    2    3 ar
     7    3    4 ar
     8    3   41 1
     9    4    5 ar
    10    4   42 1
    11    5    6 ar
    12    5   10 1
    13    6    7 ar
    14    6    9 1
    15    7    8 1
    16   10   11 2
    17   10   12 am
    18   12   17 1
    19   12   13 1
    20   13   14 1
    21   13   43 1
    22   13   44 1
    23   14   15 1
    24   14   16 1
    25   14   23 1
    26   16   22 1
    27   16   17 1
    28   16   18 1
    29   17   45 1
    30   17   46 1
    31   18   19 1
    32   18   47 1
    33   18   48 1
    34   19   20 1
    35   19   49 1
    36   19   50 1
    37   20   21 1
    38   20   51 1
    39   20   70 1
    40   21   22 1
    41   21   52 1
    42   21   53 1
    43   22   54 1
    44   22   55 1
    45   23   24 2
    46   23   25 am
    47   25   26 1
    48   25   56 1
    49   26   27 1
    50   26   57 1
    51   26   58 1
    52   27   28 1
    53   27   59 1
    54   27   60 1
    55   28   33 ar
    56   28   29 ar
    57   29   30 ar
    58   29   61 1
    59   30   31 ar
    60   30   62 1
    61   31   32 ar
    62   31   36 1
    63   32   33 ar
    64   32   34 1
    65   33   63 1
    66   34   35 1
    67   35   64 1
    68   35   65 1
    69   35   66 1
    70   36   37 1
    71   37   67 1
    72   37   68 1
    73   37   69 1
@<TRIPOS>MOLECULE
ZINC39669159
   67    71     0     0     0
SMALL
USER_CHARGES

@<TRIPOS>ATOM
      1 C1          0.1768    1.3627    0.8068 C.3       1 <0>        -0.0858
      2 C2          0.0941   -0.0772    0.3697 C.2       1 <0>         0.0437
      3 C3         -0.9344   -0.9050    0.6089 C.2       1 <0>        -0.2001
      4 C4         -0.5686   -2.1911   -0.0023 C.2       1 <0>        -0.1539
      5 C5          0.6637   -1.9979   -0.5546 C.2       1 <0>        -0.0381
      6 O1          1.0351   -0.7346   -0.3258 O.3       1 <0>        -0.1408
      7 C6          1.4672   -3.0317   -1.3008 C.3       1 <0>         0.5493
      8 F1          1.1501   -2.9752   -2.6623 F         1 <0>        -0.1627
      9 F2          2.8317   -2.7751   -1.1288 F         1 <0>        -0.1646
     10 F3          1.1658   -4.3043   -0.8042 F         1 <0>        -0.1272
     11 C7         -1.3665   -3.4302   -0.0155 C.2       1 <0>         0.6122
     12 O2         -0.8140   -4.5080   -0.1254 O.2       1 <0>        -0.5048
     13 N1         -2.7084   -3.3688    0.0942 N.am      1 <0>        -0.6082
     14 C8         -3.5634   -2.1586    0.1177 C.3       1 <0>         0.1099
     15 C9         -4.8073   -2.5434   -0.7142 C.3       1 <0>        -0.1140
     16 H1         -5.7057   -2.1073   -0.2774 H         1 <0>         0.1178
     17 C10        -4.8679   -4.0784   -0.6426 C.3       1 <0>        -0.0716
     18 C11        -3.6630   -4.4970    0.2122 C.3       1 <0>         0.1094
     19 C12        -4.7489   -4.6777   -2.0405 C.3       1 <0>        -0.1477
     20 C13        -4.8690   -6.2016   -1.9494 C.3       1 <0>        -0.0090
     21 N2         -6.1614   -6.5573   -1.3510 N.4       1 <0>        -0.5046
     22 C14        -6.2304   -6.0560    0.0269 C.3       1 <0>        -0.0099
     23 C15        -6.1675   -4.5260    0.0194 C.3       1 <0>        -0.1335
     24 C16        -4.6452   -2.0883   -2.1417 C.2       1 <0>         0.5136
     25 O3         -3.5500   -2.1040   -2.6625 O.2       1 <0>        -0.5165
     26 N3         -5.7172   -1.6639   -2.8396 N.am      1 <0>        -0.7216
     27 C17        -5.5596   -1.2215   -4.2273 C.3       1 <0>         0.1305
     28 C18        -6.9192   -0.7945   -4.7840 C.3       1 <0>         0.1260
     29 H2         -7.3142    0.0245   -4.1830 H         1 <0>         0.0791
     30 C19        -6.7524   -0.3328   -6.2084 C.ar      1 <0>        -0.1246
     31 C20        -5.6794    0.4875   -6.5213 C.ar      1 <0>        -0.1094
     32 C21        -5.4977    0.9334   -7.8151 C.ar      1 <0>        -0.1171
     33 C22        -6.3896    0.5614   -8.8039 C.ar      1 <0>        -0.1064
     34 C23        -7.4575   -0.2571   -8.4940 C.ar      1 <0>        -0.1168
     35 C24        -7.6391   -0.7074   -7.1959 C.ar      1 <0>        -0.0692
     36 C25        -8.8093   -1.6097   -6.8981 C.3       1 <0>        -0.1178
     37 C26        -9.0646   -1.6452   -5.3902 C.3       1 <0>         0.0618
     38 O4         -7.8209   -1.8994   -4.7283 O.3       1 <0>        -0.3764
     39 H3          1.1213    1.7906    0.4709 H         1 <0>         0.0879
     40 H4         -0.6510    1.9225    0.3716 H         1 <0>         0.0978
     41 H5          0.1198    1.4162    1.8940 H         1 <0>         0.0993
     42 H6         -1.8449   -0.6738    1.1418 H         1 <0>         0.1697
     43 H7         -3.8506   -1.9161    1.1408 H         1 <0>         0.0924
     44 H8         -3.0442   -1.3176   -0.3418 H         1 <0>         0.1015
     45 H9         -3.2199   -5.4128   -0.1790 H         1 <0>         0.0913
     46 H10        -3.9650   -4.6328    1.2507 H         1 <0>         0.0877
     47 H11        -5.5460   -4.2870   -2.6731 H         1 <0>         0.0970
     48 H12        -3.7817   -4.4139   -2.4684 H         1 <0>         0.1255
     49 H13        -4.8009   -6.6316   -2.9486 H         1 <0>         0.1383
     50 H14        -4.0621   -6.5930   -1.3300 H         1 <0>         0.1343
     51 H15        -6.9063   -6.1473   -1.8943 H         1 <0>         0.4283
     52 H16        -7.1657   -6.3787    0.4843 H         1 <0>         0.1399
     53 H17        -5.3912   -6.4511    0.5994 H         1 <0>         0.1327
     54 H18        -6.2004   -4.1554    1.0439 H         1 <0>         0.1217
     55 H19        -7.0156   -4.1297   -0.5390 H         1 <0>         0.0991
     56 H20        -6.5931   -1.6513   -2.4231 H         1 <0>         0.4044
     57 H21        -4.8707   -0.3775   -4.2636 H         1 <0>         0.0895
     58 H22        -5.1625   -2.0406   -4.8268 H         1 <0>         0.0803
     59 H23        -4.9827    0.7793   -5.7493 H         1 <0>         0.1248
     60 H24        -4.6604    1.5722   -8.0545 H         1 <0>         0.1281
     61 H25        -6.2515    0.9105   -9.8165 H         1 <0>         0.1282
     62 H26        -8.1545   -0.5472   -9.2663 H         1 <0>         0.1265
     63 H27        -9.6964   -1.2328   -7.4071 H         1 <0>         0.0894
     64 H28        -8.5898   -2.6169   -7.2523 H         1 <0>         0.0863
     65 H29        -9.4658   -0.6857   -5.0640 H         1 <0>         0.0602
     66 H30        -9.7732   -2.4400   -5.1574 H         1 <0>         0.1031
     67 H31        -6.2642   -7.5610   -1.3479 H         1 <0>         0.4337
@<TRIPOS>BOND
     1    1    2 1
     2    1   39 1
     3    1   40 1
     4    1   41 1
     5    2    6 1
     6    2    3 2
     7    3    4 1
     8    3   42 1
     9    4    5 2
    10    4   11 1
    11    5    6 1
    12    5    7 1
    13    7    8 1
    14    7    9 1
    15    7   10 1
    16   11   12 2
    17   11   13 am
    18   13   18 1
    19   13   14 1
    20   14   15 1
    21   14   43 1
    22   14   44 1
    23   15   16 1
    24   15   17 1
    25   15   24 1
    26   17   23 1
    27   17   18 1
    28   17   19 1
    29   18   45 1
    30   18   46 1
    31   19   20 1
    32   19   47 1
    33   19   48 1
    34   20   21 1
    35   20   49 1
    36   20   50 1
    37   21   22 1
    38   21   51 1
    39   21   67 1
    40   22   23 1
    41   22   52 1
    42   22   53 1
    43   23   54 1
    44   23   55 1
    45   24   25 2
    46   24   26 am
    47   26   27 1
    48   26   56 1
    49   27   28 1
    50   27   57 1
    51   27   58 1
    52   28   29 1
    53   28   38 1
    54   28   30 1
    55   30   35 ar
    56   30   31 ar
    57   31   32 ar
    58   31   59 1
    59   32   33 ar
    60   32   60 1
    61   33   34 ar
    62   33   61 1
    63   34   35 ar
    64   34   62 1
    65   35   36 1
    66   36   37 1
    67   36   63 1
    68   36   64 1
    69   37   38 1
    70   37   65 1
    71   37   66 1
@<TRIPOS>MOLECULE
ZINC39673808
   79    82     0     0     0
SMALL
USER_CHARGES

@<TRIPOS>ATOM
      1 C1          3.6992   -2.2692   -4.3109 C.3       1 <0>        -0.1567
      2 C2          2.8261   -2.3730   -3.0588 C.3       1 <0>        -0.1233
      3 C3          1.7521   -3.4414   -3.2731 C.3       1 <0>        -0.1294
      4 C4          0.8790   -3.5452   -2.0210 C.3       1 <0>         0.1388
      5 H1          0.4728   -2.5631   -1.7789 H         1 <0>         0.0929
      6 C5         -0.2694   -4.5225   -2.2797 C.3       1 <0>        -0.1636
      7 N1          1.6885   -4.0288   -0.8998 N.am      1 <0>        -0.7224
      8 C6          1.3281   -3.7388    0.3660 C.2       1 <0>         0.5170
      9 O1          0.3336   -3.0775    0.5770 O.2       1 <0>        -0.5181
     10 C7          2.1609   -4.2362    1.5193 C.3       1 <0>        -0.1173
     11 H2          3.2039   -4.3349    1.2186 H         1 <0>         0.1166
     12 C8          2.0370   -3.2779    2.7251 C.3       1 <0>         0.1132
     13 N2          0.9693   -3.8696    3.5653 N.am      1 <0>        -0.6177
     14 C9          1.2099   -5.3307    3.4925 C.3       1 <0>         0.1064
     15 C10         1.6206   -5.5832    2.0282 C.3       1 <0>        -0.0721
     16 C11         2.7102   -6.6489    1.9614 C.3       1 <0>        -0.1339
     17 C12         2.1330   -7.9921    2.4170 C.3       1 <0>        -0.0099
     18 N3          1.0059   -8.3611    1.5520 N.4       1 <0>        -0.5044
     19 C13        -0.0760   -7.3792    1.6932 C.3       1 <0>        -0.0094
     20 C14         0.4078   -6.0102    1.2070 C.3       1 <0>        -0.1465
     21 C15        -0.0011   -3.2249    4.2430 C.2       1 <0>         0.5533
     22 O2         -0.8086   -3.8552    4.8923 O.2       1 <0>        -0.5295
     23 C16        -0.0828   -1.7209    4.1940 C.3       1 <0>        -0.1028
     24 C17         1.2141   -1.1217    4.7428 C.3       1 <0>        -0.1304
     25 C18         1.1414    0.4062    4.6593 C.3       1 <0>         0.1292
     26 N4         -0.0730    0.8602    5.3506 N.am      1 <0>        -0.5962
     27 C19        -1.3657    0.2799    4.9623 C.3       1 <0>         0.1115
     28 C20        -1.2649   -1.2466    5.0423 C.3       1 <0>        -0.1147
     29 C21        -0.0024    1.7911    6.3227 C.2       1 <0>         0.6518
     30 O3          1.0728    2.2632    6.6349 O.2       1 <0>        -0.5678
     31 O4         -1.1233    2.1980    6.9477 O.3       1 <0>        -0.3566
     32 C22        -0.9745    3.1874    7.9681 C.3       1 <0>         0.1285
     33 C23        -2.3251    3.5158    8.5502 C.ar      1 <0>        -0.1024
     34 C24        -3.0890    4.5264    7.9969 C.ar      1 <0>        -0.0934
     35 C25        -4.3279    4.8277    8.5308 C.ar      1 <0>        -0.1224
     36 C26        -4.8032    4.1182    9.6178 C.ar      1 <0>        -0.1058
     37 C27        -4.0397    3.1070   10.1706 C.ar      1 <0>        -0.1228
     38 C28        -2.8026    2.8028    9.6339 C.ar      1 <0>        -0.0938
     39 H3          4.1761   -3.2305   -4.5020 H         1 <0>         0.0537
     40 H4          3.0793   -1.9951   -5.1645 H         1 <0>         0.0572
     41 H5          4.4643   -1.5080   -4.1583 H         1 <0>         0.0577
     42 H6          3.4461   -2.6470   -2.2052 H         1 <0>         0.0591
     43 H7          2.3492   -1.4117   -2.8677 H         1 <0>         0.0642
     44 H8          1.1322   -3.1674   -4.1267 H         1 <0>         0.0831
     45 H9          2.2291   -4.4028   -3.4642 H         1 <0>         0.0676
     46 H10        -0.8915   -4.5964   -1.3877 H         1 <0>         0.0581
     47 H11        -0.8718   -4.1627   -3.1139 H         1 <0>         0.0721
     48 H12         0.1368   -5.5046   -2.5218 H         1 <0>         0.0538
     49 H13         2.4840   -4.5577   -1.0686 H         1 <0>         0.3980
     50 H14         2.9763   -3.2378    3.2767 H         1 <0>         0.0905
     51 H15         1.7489   -2.2814    2.3904 H         1 <0>         0.1006
     52 H16         2.0162   -5.6175    4.1676 H         1 <0>         0.0837
     53 H17         0.2987   -5.8787    3.7322 H         1 <0>         0.0872
     54 H18         3.0710   -6.7367    0.9366 H         1 <0>         0.0970
     55 H19         3.5355   -6.3670    2.6153 H         1 <0>         0.1218
     56 H20         2.9050   -8.7590    2.3545 H         1 <0>         0.1400
     57 H21         1.7876   -7.9081    3.4474 H         1 <0>         0.1328
     58 H22         1.3143   -8.3841    0.5915 H         1 <0>         0.4273
     59 H23        -0.9325   -7.6944    1.0972 H         1 <0>         0.1378
     60 H24        -0.3689   -7.3098    2.7408 H         1 <0>         0.1341
     61 H25        -0.3903   -5.2779    1.3289 H         1 <0>         0.1230
     62 H26         0.6853   -6.0749    0.1549 H         1 <0>         0.0960
     63 H27        -0.2235   -1.3984    3.1624 H         1 <0>         0.1082
     64 H28         1.3431   -1.4236    5.7822 H         1 <0>         0.0766
     65 H29         2.0581   -1.4786    4.1525 H         1 <0>         0.0835
     66 H30         2.0187    0.8405    5.1387 H         1 <0>         0.1036
     67 H31         1.1036    0.7137    3.6143 H         1 <0>         0.0766
     68 H32        -2.1426    0.6309    5.6415 H         1 <0>         0.1006
     69 H33        -1.6080    0.5771    3.9419 H         1 <0>         0.0749
     70 H34        -2.1853   -1.6923    4.6652 H         1 <0>         0.0868
     71 H35        -1.1126   -1.5473    6.0789 H         1 <0>         0.0770
     72 H36        -0.3237    2.8038    8.7539 H         1 <0>         0.0782
     73 H37        -0.5347    4.0880    7.5395 H         1 <0>         0.0790
     74 H38        -2.7177    5.0808    7.1476 H         1 <0>         0.1246
     75 H39        -4.9244    5.6177    8.0990 H         1 <0>         0.1271
     76 H40        -5.7709    4.3540   10.0354 H         1 <0>         0.1262
     77 H41        -4.4109    2.5528   11.0200 H         1 <0>         0.1267
     78 H42        -2.2077    2.0103   10.0634 H         1 <0>         0.1238
     79 H43         0.6664   -9.2740    1.8154 H         1 <0>         0.4343
@<TRIPOS>BOND
     1    1    2 1
     2    1   39 1
     3    1   40 1
     4    1   41 1
     5    2    3 1
     6    2   42 1
     7    2   43 1
     8    3    4 1
     9    3   44 1
    10    3   45 1
    11    4    5 1
    12    4    6 1
    13    4    7 1
    14    6   46 1
    15    6   47 1
    16    6   48 1
    17    7    8 am
    18    7   49 1
    19    8    9 2
    20    8   10 1
    21   10   11 1
    22   10   15 1
    23   10   12 1
    24   12   13 1
    25   12   50 1
    26   12   51 1
    27   13   14 1
    28   13   21 am
    29   14   15 1
    30   14   52 1
    31   14   53 1
    32   15   20 1
    33   15   16 1
    34   16   17 1
    35   16   54 1
    36   16   55 1
    37   17   18 1
    38   17   56 1
    39   17   57 1
    40   18   19 1
    41   18   58 1
    42   18   79 1
    43   19   20 1
    44   19   59 1
    45   19   60 1
    46   20   61 1
    47   20   62 1
    48   21   22 2
    49   21   23 1
    50   23   28 1
    51   23   24 1
    52   23   63 1
    53   24   25 1
    54   24   64 1
    55   24   65 1
    56   25   26 1
    57   25   66 1
    58   25   67 1
    59   26   27 1
    60   26   29 am
    61   27   28 1
    62   27   68 1
    63   27   69 1
    64   28   70 1
    65   28   71 1
    66   29   30 2
    67   29   31 1
    68   31   32 1
    69   32   33 1
    70   32   72 1
    71   32   73 1
    72   33   38 ar
    73   33   34 ar
    74   34   35 ar
    75   34   74 1
    76   35   36 ar
    77   35   75 1
    78   36   37 ar
    79   36   76 1
    80   37   38 ar
    81   37   77 1
    82   38   78 1
@<TRIPOS>MOLECULE
ZINC49508654
   73    78     0     0     0
SMALL
USER_CHARGES

@<TRIPOS>ATOM
      1 C1         -0.1403    1.1656    0.2657 C.3       1 <0>         0.0890
      2 N1         -0.0463   -0.2954    0.2137 N.pl3     1 <0>        -0.6237
      3 C2         -1.2529   -1.1258    0.3292 C.3       1 <0>         0.1167
      4 C3         -0.9393   -2.2763    1.2947 C.3       1 <0>        -0.1405
      5 C4          0.1683   -3.1395    0.6909 C.3       1 <0>        -0.0794
      6 C5          1.3360   -2.2840    0.2756 C.ar      1 <0>        -0.1342
      7 C6          1.1933   -0.9227    0.0473 C.ar      1 <0>         0.2482
      8 C7          2.2893   -0.1628   -0.3453 C.ar      1 <0>        -0.1802
      9 C8          3.5219   -0.7622   -0.5119 C.ar      1 <0>        -0.0709
     10 C9          3.6646   -2.1191   -0.2876 C.ar      1 <0>        -0.2108
     11 C10         2.5766   -2.8770    0.1133 C.ar      1 <0>        -0.0458
     12 C11         5.0102   -2.7733   -0.4677 C.3       1 <0>         0.0823
     13 H1          4.8772   -3.8469   -0.6011 H         1 <0>         0.1456
     14 C12         5.8722   -2.5160    0.7699 C.3       1 <0>         0.1054
     15 N2          5.2814   -3.1946    1.9261 N.am      1 <0>        -0.6970
     16 C13         5.9245   -3.1911    3.1106 C.2       1 <0>         0.5194
     17 O1          6.9930   -2.6259    3.2193 O.2       1 <0>        -0.5016
     18 C14         5.3224   -3.8828    4.2891 C.2       1 <0>         0.5073
     19 O2          4.2537   -4.4481    4.1804 O.2       1 <0>        -0.4961
     20 N3          5.9654   -3.8793    5.4736 N.am      1 <0>        -0.6351
     21 C15         5.4574   -4.6173    6.5471 C.ar      1 <0>         0.1058
     22 C16         5.5995   -4.1119    7.8371 C.ar      1 <0>        -0.0942
     23 C17         5.1031   -4.8003    8.9180 C.ar      1 <0>        -0.0918
     24 C18         4.4478   -6.0052    8.6521 C.ar      1 <0>         0.1335
     25 C19         4.3243   -6.5289    7.3751 C.ar      1 <0>        -0.1122
     26 C20         4.8193   -5.8342    6.2874 C.ar      1 <0>        -0.0609
     27 C21         3.6293   -7.8520    7.4908 C.3       1 <0>        -0.0852
     28 C22         3.3513   -8.0202    9.0037 C.3       1 <0>         0.1082
     29 N4          3.8498   -6.7994    9.6288 N.am      1 <0>        -0.5606
     30 C23         3.7676   -6.3637   10.9050 C.2       1 <0>         0.5336
     31 O3          3.4619   -7.1207   11.8021 O.2       1 <0>        -0.5059
     32 C24         4.0665   -4.9106   11.1864 C.3       1 <0>        -0.1384
     33 C25         5.2275   -4.3768   10.3504 C.3       1 <0>        -0.0721
     34 N5          5.6734   -2.2112   -1.6518 N.4       1 <0>        -0.3880
     35 C26         6.9090   -2.9763   -1.9585 C.3       1 <0>        -0.0111
     36 C27         7.1557   -2.6659   -3.4562 C.3       1 <0>        -0.1437
     37 C28         5.7256   -2.6323   -4.0424 C.3       1 <0>        -0.1444
     38 C29         4.8043   -2.3557   -2.8398 C.3       1 <0>        -0.0008
     39 H2          0.3178    1.5912   -0.6270 H         1 <0>         0.0609
     40 H3         -1.1885    1.4608    0.3122 H         1 <0>         0.0821
     41 H4          0.3799    1.5318    1.1508 H         1 <0>         0.0589
     42 H5         -2.0759   -0.5285    0.7216 H         1 <0>         0.0883
     43 H6         -1.5201   -1.5268   -0.6485 H         1 <0>         0.0685
     44 H7         -0.6065   -1.8709    2.2502 H         1 <0>         0.0731
     45 H8         -1.8334   -2.8816    1.4443 H         1 <0>         0.0875
     46 H9          0.5006   -3.8683    1.4302 H         1 <0>         0.0838
     47 H10        -0.2202   -3.6665   -0.1805 H         1 <0>         0.0797
     48 H11         2.1765    0.8970   -0.5204 H         1 <0>         0.1326
     49 H12         4.3735   -0.1720   -0.8167 H         1 <0>         0.1154
     50 H13         2.6927   -3.9366    0.2873 H         1 <0>         0.1300
     51 H14         6.8779   -2.8995    0.5983 H         1 <0>         0.0961
     52 H15         5.9200   -1.4443    0.9629 H         1 <0>         0.0944
     53 H16         4.4275   -3.6463    1.8392 H         1 <0>         0.4191
     54 H17         6.7807   -3.3649    5.5813 H         1 <0>         0.4237
     55 H18         6.1052   -3.1698    7.9895 H         1 <0>         0.1369
     56 H19         4.7209   -6.2162    5.2820 H         1 <0>         0.1448
     57 H20         2.6935   -7.8394    6.9320 H         1 <0>         0.0958
     58 H21         4.2758   -8.6530    7.1323 H         1 <0>         0.0972
     59 H22         2.2810   -8.1249    9.1813 H         1 <0>         0.0852
     60 H23         3.8854   -8.8877    9.3913 H         1 <0>         0.0854
     61 H24         3.1763   -4.3198   10.9706 H         1 <0>         0.1050
     62 H25         4.3127   -4.7997   12.2424 H         1 <0>         0.1134
     63 H26         6.1647   -4.7582   10.7557 H         1 <0>         0.0891
     64 H27         5.2340   -3.2880   10.4019 H         1 <0>         0.0964
     65 H28         7.7414   -2.6227   -1.3501 H         1 <0>         0.1377
     66 H29         6.7476   -4.0438   -1.8083 H         1 <0>         0.1361
     67 H30         7.6438   -1.6985   -3.5743 H         1 <0>         0.0988
     68 H31         7.7449   -3.4558   -3.9219 H         1 <0>         0.1177
     69 H32         5.6371   -1.8332   -4.7785 H         1 <0>         0.1049
     70 H33         5.4793   -3.5931   -4.4945 H         1 <0>         0.1040
     71 H34         4.1177   -3.1903   -2.6983 H         1 <0>         0.1318
     72 H35         4.2448   -1.4349   -3.0048 H         1 <0>         0.1312
     73 H36         5.8943   -1.2386   -1.4986 H         1 <0>         0.4241
@<TRIPOS>BOND
     1    1    2 1
     2    1   39 1
     3    1   40 1
     4    1   41 1
     5    2    7 1
     6    2    3 1
     7    3    4 1
     8    3   42 1
     9    3   43 1
    10    4    5 1
    11    4   44 1
    12    4   45 1
    13    5    6 1
    14    5   46 1
    15    5   47 1
    16    6   11 ar
    17    6    7 ar
    18    7    8 ar
    19    8    9 ar
    20    8   48 1
    21    9   10 ar
    22    9   49 1
    23   10   11 ar
    24   10   12 1
    25   11   50 1
    26   12   13 1
    27   12   14 1
    28   12   34 1
    29   14   15 1
    30   14   51 1
    31   14   52 1
    32   15   16 am
    33   15   53 1
    34   16   17 2
    35   16   18 1
    36   18   19 2
    37   18   20 am
    38   20   21 1
    39   20   54 1
    40   21   26 ar
    41   21   22 ar
    42   22   23 ar
    43   22   55 1
    44   23   33 1
    45   23   24 ar
    46   24   29 1
    47   24   25 ar
    48   25   26 ar
    49   25   27 1
    50   26   56 1
    51   27   28 1
    52   27   57 1
    53   27   58 1
    54   28   29 1
    55   28   59 1
    56   28   60 1
    57   29   30 am
    58   30   31 2
    59   30   32 1
    60   32   33 1
    61   32   61 1
    62   32   62 1
    63   33   63 1
    64   33   64 1
    65   34   38 1
    66   34   35 1
    67   34   73 1
    68   35   36 1
    69   35   65 1
    70   35   66 1
    71   36   37 1
    72   36   67 1
    73   36   68 1
    74   37   38 1
    75   37   69 1
    76   37   70 1
    77   38   71 1
    78   38   72 1
@<TRIPOS>MOLECULE
ZINC11123190
   64    67     0     0     0
SMALL
USER_CHARGES
1-(4-chlorophenyl)sulfonyl-N-(9-cyano-3,3,5,5-tetramethyl-7-thia-4-azabicyclo[4.3.0]nona-8,10-dien-8-yl)-piperidine-4-carboxamide
@<TRIPOS>ATOM
      1 C1         -1.9730    0.1112   12.9832 C.3       1 <0>        -0.1826
      2 C2         -1.1657    0.2412   11.6779 C.3       1 <0>         0.0645
      3 C3         -1.3435    1.6720   11.1567 C.3       1 <0>        -0.0692
      4 C4         -0.4535    1.8271    9.9310 C.2       1 <0>        -0.0298
      5 C5         -0.7126    2.6852    8.7956 C.2       1 <0>        -0.1308
      6 C6          0.2224    2.6838    7.7676 C.2       1 <0>         0.1142
      7 S1          1.4192    1.5595    8.3211 S.3       1 <0>         0.3501
      8 C7          0.6949    1.1115    9.8718 C.2       1 <0>        -0.2915
      9 C8          1.2099    0.1690   10.9098 C.3       1 <0>         0.1684
     10 C9          1.6089   -1.1547   10.2422 C.3       1 <0>        -0.1780
     11 C10         2.4747    0.7843   11.5383 C.3       1 <0>        -0.1794
     12 N1          0.2014    3.4094    6.5847 N.am      1 <0>        -0.6193
     13 C11         1.2064    3.2788    5.6961 C.2       1 <0>         0.5200
     14 O1          2.1291    2.5272    5.9303 O.2       1 <0>        -0.4850
     15 C12         1.1836    4.0667    4.4117 C.3       1 <0>        -0.0996
     16 C13         2.4309    3.7363    3.5887 C.3       1 <0>        -0.1184
     17 C14         2.4217    4.5646    2.3001 C.3       1 <0>         0.1178
     18 N2          1.1540    4.3291    1.5956 N.pl3     1 <0>        -0.9986
     19 C15        -0.1066    4.5349    2.3217 C.3       1 <0>         0.1209
     20 C16        -0.0689    3.7016    3.6117 C.3       1 <0>        -0.1337
     21 S2          1.1461    3.8474    0.0112 S.o2      1 <0>         2.6896
     22 O2          2.3804    4.2738   -0.5491 O.2       1 <0>        -0.9437
     23 O3         -0.1099    4.2388   -0.5260 O.2       1 <0>        -0.9454
     24 C17         1.1708    2.0856    0.0021 C.ar      1 <0>        -0.6789
     25 C18        -0.0167    1.3779    0.0096 C.ar      1 <0>        -0.0084
     26 C19         0.0021   -0.0041    0.0020 C.ar      1 <0>        -0.1314
     27 C20         1.2096   -0.6792   -0.0131 C.ar      1 <0>         0.0180
     28 C21         2.3977    0.0297   -0.0206 C.ar      1 <0>        -0.1298
     29 C22         2.3777    1.4116   -0.0130 C.ar      1 <0>        -0.0061
     30 Cl1         1.2340   -2.4150   -0.0221 Cl        1 <0>        -0.0493
     31 C23        -1.8805    3.5109    8.7229 C.1       1 <0>         0.2484
     32 N3         -2.8069    4.1659    8.6651 N.1       1 <0>        -0.3918
     33 C24        -1.7536   -0.7428   10.6623 C.3       1 <0>        -0.1706
     34 H1         -3.0252    0.3119   12.7812 H         1 <0>         0.1074
     35 H2         -1.8651   -0.8990   13.3781 H         1 <0>         0.0857
     36 H3         -1.6001    0.8288   13.7141 H         1 <0>         0.0836
     37 H4         -1.0440    2.3828   11.9257 H         1 <0>         0.1099
     38 H5         -2.3871    1.8316   10.8895 H         1 <0>         0.1206
     39 H6          2.3865   -0.9681    9.5015 H         1 <0>         0.1068
     40 H7          1.9851   -1.8440   10.9982 H         1 <0>         0.0916
     41 H8          0.7384   -1.5917    9.7530 H         1 <0>         0.0875
     42 H9          2.2246    1.7420   11.9946 H         1 <0>         0.0865
     43 H10         2.8666    0.1102   12.3000 H         1 <0>         0.0901
     44 H11         3.2278    0.9358   10.7650 H         1 <0>         0.1077
     45 H12        -0.5365    4.0105    6.3974 H         1 <0>         0.4287
     46 H13         1.1709    5.1325    4.6398 H         1 <0>         0.1183
     47 H14         2.4315    2.6752    3.3392 H         1 <0>         0.0815
     48 H15         3.3228    3.9748    4.1681 H         1 <0>         0.0923
     49 H16         3.2543    4.2618    1.6651 H         1 <0>         0.1025
     50 H17         2.5124    5.6228    2.5452 H         1 <0>         0.0849
     51 H18        -0.2178    5.5907    2.5686 H         1 <0>         0.0869
     52 H19        -0.9426    4.2125    1.7010 H         1 <0>         0.1022
     53 H20        -0.0447    2.6408    3.3620 H         1 <0>         0.0818
     54 H21        -0.9563    3.9154    4.2076 H         1 <0>         0.0821
     55 H22        -0.9593    1.9051    0.0169 H         1 <0>         0.1492
     56 H23        -0.9257   -0.5569    0.0082 H         1 <0>         0.1453
     57 H24         3.3407   -0.4968   -0.0321 H         1 <0>         0.1464
     58 H25         3.3051    1.9651   -0.0192 H         1 <0>         0.1505
     59 H26        -1.2357   -0.6341    9.7094 H         1 <0>         0.0834
     60 H27        -1.6291   -1.7615   11.0294 H         1 <0>         0.0827
     61 H28        -2.8144   -0.5331   10.5253 H         1 <0>         0.1045
     62 N4          0.2424   -0.0920   12.0144 N.4       1 <0>        -0.5091
     63 H29         0.2891   -1.0890   12.2554 H         1 <0>         0.4355
     64 H30         0.5214    0.4700   12.8272 H         1 <0>         0.4324
@<TRIPOS>BOND
     1    1    2 1
     2    1   34 1
     3    1   35 1
     4    1   36 1
     5    2    3 1
     6    2   33 1
     7    2   62 1
     8    3    4 1
     9    3   37 1
    10    3   38 1
    11    4    8 2
    12    4    5 1
    13    5    6 2
    14    5   31 1
    15    6    7 1
    16    6   12 1
    17    7    8 1
    18    8    9 1
    19    9   10 1
    20    9   11 1
    21    9   62 1
    22   10   39 1
    23   10   40 1
    24   10   41 1
    25   11   42 1
    26   11   43 1
    27   11   44 1
    28   12   13 am
    29   12   45 1
    30   13   14 2
    31   13   15 1
    32   15   20 1
    33   15   16 1
    34   15   46 1
    35   16   17 1
    36   16   47 1
    37   16   48 1
    38   17   18 1
    39   17   49 1
    40   17   50 1
    41   18   19 1
    42   18   21 1
    43   19   20 1
    44   19   51 1
    45   19   52 1
    46   20   53 1
    47   20   54 1
    48   21   22 2
    49   21   23 2
    50   21   24 1
    51   24   29 ar
    52   24   25 ar
    53   25   26 ar
    54   25   55 1
    55   26   27 ar
    56   26   56 1
    57   27   28 ar
    58   27   30 1
    59   28   29 ar
    60   28   57 1
    61   29   58 1
    62   31   32 3
    63   33   59 1
    64   33   60 1
    65   33   61 1
    66   62   63 1
    67   62   64 1
@<TRIPOS>MOLECULE
ZINC39666791
   70    73     0     0     0
SMALL
USER_CHARGES

@<TRIPOS>ATOM
      1 C1          1.0475    2.8347   -4.0299 C.3       1 <0>        -0.1567
      2 C2          0.3005    2.0768   -2.9306 C.3       1 <0>        -0.1219
      3 C3          1.2298    1.0319   -2.3098 C.3       1 <0>        -0.0969
      4 C4          2.4116    1.7348   -1.6389 C.3       1 <0>        -0.1222
      5 C5          3.3811    0.6879   -1.0868 C.3       1 <0>        -0.1567
      6 C6          0.4597    0.2205   -1.2660 C.3       1 <0>         0.1169
      7 N1         -0.5989   -0.5465   -1.9274 N.am      1 <0>        -0.7259
      8 C7         -1.4107   -1.3398   -1.2008 C.2       1 <0>         0.5179
      9 O1         -1.2649   -1.4188    0.0007 O.2       1 <0>        -0.5183
     10 C8         -2.4996   -2.1287   -1.8811 C.3       1 <0>        -0.1136
     11 H1         -2.8366   -1.6122   -2.7799 H         1 <0>         0.1111
     12 C9         -3.6839   -2.3552   -0.9148 C.3       1 <0>         0.1129
     13 N2         -4.1590   -3.7254   -1.2194 N.am      1 <0>        -0.6149
     14 C10        -2.9181   -4.5028   -1.4515 C.3       1 <0>         0.1102
     15 C11        -1.9995   -3.5404   -2.2306 C.3       1 <0>        -0.0725
     16 C12        -2.1253   -3.7893   -3.7306 C.3       1 <0>        -0.1337
     17 C13        -1.5694   -5.1774   -4.0612 C.3       1 <0>        -0.0114
     18 N3         -0.1629   -5.2542   -3.6482 N.4       1 <0>        -0.5045
     19 C14        -0.0596   -5.1059   -2.1915 C.3       1 <0>        -0.0078
     20 C15        -0.5519   -3.7149   -1.7818 C.3       1 <0>        -0.1466
     21 C16        -5.4317   -4.1655   -1.2732 C.2       1 <0>         0.6243
     22 O2         -5.6617   -5.3300   -1.5384 O.2       1 <0>        -0.5002
     23 C17        -6.5438   -3.2365   -1.0109 C.2       1 <0>        -0.2873
     24 C18        -7.2768   -2.5614   -1.9422 C.2       1 <0>         0.1247
     25 O3         -8.1887   -1.8237   -1.3035 O.3       1 <0>        -0.0599
     26 N4         -8.0569   -2.0147    0.0909 N.2       1 <0>        -0.2664
     27 C19        -7.0826   -2.8624    0.3056 C.2       1 <0>         0.1772
     28 C20        -6.6097   -3.3488    1.6240 C.ar      1 <0>        -0.0361
     29 C21        -6.1212   -2.4468    2.5691 C.ar      1 <0>         0.0025
     30 C22        -5.6820   -2.9064    3.7956 C.ar      1 <0>        -0.1057
     31 C23        -5.7260   -4.2577    4.0872 C.ar      1 <0>        -0.0709
     32 C24        -6.2088   -5.1572    3.1542 C.ar      1 <0>        -0.1070
     33 C25        -6.6568   -4.7097    1.9264 C.ar      1 <0>        -0.0036
     34 Cl1        -7.2702   -5.8393    0.7597 Cl        1 <0>        -0.0221
     35 Cl2        -6.0646   -0.7504    2.2048 Cl        1 <0>        -0.0361
     36 C26        -7.0896   -2.6350   -3.4357 C.3       1 <0>        -0.0931
     37 H2          1.8520    3.4204   -3.5852 H         1 <0>         0.0603
     38 H3          1.4665    2.1232   -4.7414 H         1 <0>         0.0533
     39 H4          0.3560    3.5005   -4.5464 H         1 <0>         0.0573
     40 H5         -0.0231    2.7780   -2.1614 H         1 <0>         0.0677
     41 H6         -0.5701    1.5801   -3.3589 H         1 <0>         0.0581
     42 H7          1.5985    0.3648   -3.0890 H         1 <0>         0.0747
     43 H8          2.9270    2.3573   -2.3704 H         1 <0>         0.0744
     44 H9          2.0476    2.3590   -0.8229 H         1 <0>         0.0684
     45 H10         2.9006    0.1390   -0.2769 H         1 <0>         0.0551
     46 H11         3.6584   -0.0053   -1.8810 H         1 <0>         0.0520
     47 H12         4.2752    1.1840   -0.7091 H         1 <0>         0.0598
     48 H13         1.1424   -0.4631   -0.7612 H         1 <0>         0.0753
     49 H14         0.0161    0.8965   -0.5351 H         1 <0>         0.0735
     50 H15        -0.7155   -0.4833   -2.8883 H         1 <0>         0.3993
     51 H16        -3.3476   -2.2909    0.1200 H         1 <0>         0.1005
     52 H17        -4.4736   -1.6282   -1.1046 H         1 <0>         0.0891
     53 H18        -2.4607   -4.7818   -0.5023 H         1 <0>         0.0861
     54 H19        -3.1309   -5.3901   -2.0477 H         1 <0>         0.0917
     55 H20        -3.1746   -3.7388   -4.0211 H         1 <0>         0.1177
     56 H21        -1.5599   -3.0321   -4.2737 H         1 <0>         0.0968
     57 H22        -2.1457   -5.9351   -3.5302 H         1 <0>         0.1346
     58 H23        -1.6428   -5.3517   -5.1346 H         1 <0>         0.1401
     59 H24         0.2183   -6.1474   -3.9218 H         1 <0>         0.4345
     60 H25        -0.6714   -5.8655   -1.7049 H         1 <0>         0.1337
     61 H26         0.9799   -5.2274   -1.8870 H         1 <0>         0.1394
     62 H27         0.0699   -2.9549   -2.2549 H         1 <0>         0.0973
     63 H28        -0.4919   -3.6122   -0.6983 H         1 <0>         0.1266
     64 H29        -5.3032   -2.2091    4.5282 H         1 <0>         0.1512
     65 H30        -5.3815   -4.6120    5.0475 H         1 <0>         0.1522
     66 H31        -6.2400   -6.2112    3.3876 H         1 <0>         0.1501
     67 H32        -7.7086   -3.4356   -3.8405 H         1 <0>         0.1070
     68 H33        -7.3824   -1.6864   -3.8858 H         1 <0>         0.0992
     69 H34        -6.0423   -2.8361   -3.6611 H         1 <0>         0.0896
     70 H35         0.3590   -4.5169   -4.0978 H         1 <0>         0.4275
@<TRIPOS>BOND
     1    1    2 1
     2    1   37 1
     3    1   38 1
     4    1   39 1
     5    2    3 1
     6    2   40 1
     7    2   41 1
     8    3    4 1
     9    3    6 1
    10    3   42 1
    11    4    5 1
    12    4   43 1
    13    4   44 1
    14    5   45 1
    15    5   46 1
    16    5   47 1
    17    6    7 1
    18    6   48 1
    19    6   49 1
    20    7    8 am
    21    7   50 1
    22    8    9 2
    23    8   10 1
    24   10   11 1
    25   10   15 1
    26   10   12 1
    27   12   13 1
    28   12   51 1
    29   12   52 1
    30   13   14 1
    31   13   21 am
    32   14   15 1
    33   14   53 1
    34   14   54 1
    35   15   20 1
    36   15   16 1
    37   16   17 1
    38   16   55 1
    39   16   56 1
    40   17   18 1
    41   17   57 1
    42   17   58 1
    43   18   19 1
    44   18   59 1
    45   18   70 1
    46   19   20 1
    47   19   60 1
    48   19   61 1
    49   20   62 1
    50   20   63 1
    51   21   22 2
    52   21   23 1
    53   23   27 1
    54   23   24 2
    55   24   25 1
    56   24   36 1
    57   25   26 1
    58   26   27 2
    59   27   28 1
    60   28   33 ar
    61   28   29 ar
    62   29   30 ar
    63   29   35 1
    64   30   31 ar
    65   30   64 1
    66   31   32 ar
    67   31   65 1
    68   32   33 ar
    69   32   66 1
    70   33   34 1
    71   36   67 1
    72   36   68 1
    73   36   69 1
@<TRIPOS>MOLECULE
ZINC39678316
   80    84     0     0     0
SMALL
USER_CHARGES

@<TRIPOS>ATOM
      1 C1         -1.4354    1.7511   -0.9864 C.3       1 <0>        -0.1215
      2 C2         -0.7048    0.4463   -0.8001 C.ar      1 <0>        -0.0305
      3 C3         -0.2505   -0.2661   -1.9104 C.ar      1 <0>        -0.1300
      4 C4          0.4258   -1.4735   -1.7297 C.ar      1 <0>        -0.0830
      5 C5          0.6427   -1.9581   -0.4558 C.ar      1 <0>        -0.1136
      6 C6          0.1920   -1.2512    0.6433 C.ar      1 <0>        -0.0833
      7 C7         -0.4772   -0.0464    0.4736 C.ar      1 <0>         0.0807
      8 O1         -0.9135    0.6471    1.5582 O.3       1 <0>        -0.2952
      9 C8         -0.2085    1.7225    1.9443 C.2       1 <0>         0.4575
     10 O2          0.8316    1.9931    1.3920 O.2       1 <0>        -0.4892
     11 C9         -0.7143    2.5921    3.0663 C.3       1 <0>        -0.1454
     12 C10        -0.4851    0.2560   -3.2737 C.2       1 <0>         0.5929
     13 O3         -0.4437    1.4529   -3.4817 O.2       1 <0>        -0.5153
     14 N1         -0.7450   -0.5952   -4.2859 N.am      1 <0>        -0.6193
     15 C11        -0.9680   -2.0582   -4.2078 C.3       1 <0>         0.1098
     16 C12        -2.1025   -2.3347   -5.2196 C.3       1 <0>        -0.1127
     17 H1         -3.0679   -2.3457   -4.7137 H         1 <0>         0.1072
     18 C13        -2.0335   -1.1652   -6.2159 C.3       1 <0>        -0.0678
     19 C14        -0.8788   -0.2784   -5.7280 C.3       1 <0>         0.1090
     20 C15        -3.3398   -0.3773   -6.1973 C.3       1 <0>        -0.1346
     21 C16        -3.2682    0.7451   -7.2365 C.3       1 <0>        -0.0109
     22 N2         -3.0399    0.1686   -8.5670 N.4       1 <0>        -0.5053
     23 C17        -1.7382   -0.5087   -8.6028 C.3       1 <0>        -0.0101
     24 C18        -1.7449   -1.6840   -7.6212 C.3       1 <0>        -0.1459
     25 C19        -1.8670   -3.6443   -5.9270 C.2       1 <0>         0.5192
     26 O4         -0.8045   -3.8568   -6.4717 O.2       1 <0>        -0.5274
     27 N3         -2.8372   -4.5794   -5.9544 N.am      1 <0>        -0.7113
     28 C20        -2.6082   -5.8526   -6.6421 C.3       1 <0>         0.1726
     29 C21        -3.8389   -6.7146   -6.5262 C.ar      1 <0>        -0.1270
     30 C22        -3.8925   -7.7196   -5.5802 C.ar      1 <0>        -0.0927
     31 C23        -5.0210   -8.5112   -5.4735 C.ar      1 <0>        -0.1203
     32 C24        -6.0999   -8.2996   -6.3126 C.ar      1 <0>        -0.0991
     33 C25        -6.0532   -7.2964   -7.2602 C.ar      1 <0>        -0.1269
     34 C26        -4.9228   -6.4956   -7.3666 C.ar      1 <0>         0.1846
     35 N4         -4.8742   -5.4765   -8.3205 N.pl3     1 <0>        -0.6732
     36 C27        -4.3660   -5.7412   -9.6735 C.3       1 <0>         0.1457
     37 C28        -5.4155   -5.2855  -10.6922 C.3       1 <0>        -0.1407
     38 C29        -5.7725   -3.8206  -10.4303 C.3       1 <0>        -0.1121
     39 C30        -6.3689   -3.6820   -9.0277 C.3       1 <0>        -0.1425
     40 C31        -5.3359   -4.1210   -7.9919 C.3       1 <0>         0.1534
     41 H2         -0.7271    2.5769   -0.9193 H         1 <0>         0.0837
     42 H3         -1.9150    1.7624   -1.9652 H         1 <0>         0.0796
     43 H4         -2.1925    1.8577   -0.2096 H         1 <0>         0.0700
     44 H5          0.7789   -2.0285   -2.5863 H         1 <0>         0.1345
     45 H6          1.1658   -2.8928   -0.3173 H         1 <0>         0.1427
     46 H7          0.3646   -1.6353    1.6379 H         1 <0>         0.1409
     47 H8         -0.3255    2.2232    4.0154 H         1 <0>         0.1114
     48 H9         -0.3796    3.6176    2.9104 H         1 <0>         0.1096
     49 H10        -1.8038    2.5643    3.0846 H         1 <0>         0.0983
     50 H11        -0.0642   -2.5961   -4.4938 H         1 <0>         0.0949
     51 H12        -1.2781   -2.3422   -3.2021 H         1 <0>         0.0979
     52 H13        -1.1248    0.7746   -5.8649 H         1 <0>         0.0901
     53 H14         0.0399   -0.5275   -6.2591 H         1 <0>         0.0871
     54 H15        -4.1694   -1.0425   -6.4368 H         1 <0>         0.0954
     55 H16        -3.4915    0.0526   -5.2072 H         1 <0>         0.1170
     56 H17        -4.2066    1.2997   -7.2372 H         1 <0>         0.1390
     57 H18        -2.4486    1.4190   -6.9872 H         1 <0>         0.1344
     58 H19        -3.7697   -0.4969   -8.7735 H         1 <0>         0.4261
     59 H20        -1.5489   -0.8784   -9.6106 H         1 <0>         0.1380
     60 H21        -0.9548    0.1950   -8.3213 H         1 <0>         0.1327
     61 H22        -0.7720   -2.1753   -7.6351 H         1 <0>         0.1405
     62 H23        -2.5171   -2.3964   -7.9118 H         1 <0>         0.0920
     63 H24        -3.6870   -4.4095   -5.5188 H         1 <0>         0.4010
     64 H25        -2.3946   -5.6639   -7.6942 H         1 <0>         0.0797
     65 H26        -1.7614   -6.3650   -6.1856 H         1 <0>         0.0756
     66 H27        -3.0518   -7.8875   -4.9234 H         1 <0>         0.1259
     67 H28        -5.0600   -9.2968   -4.7334 H         1 <0>         0.1277
     68 H29        -6.9798   -8.9200   -6.2268 H         1 <0>         0.1268
     69 H30        -6.8958   -7.1319   -7.9154 H         1 <0>         0.1232
     70 H31        -3.4400   -5.1882   -9.8306 H         1 <0>         0.0477
     71 H32        -4.1811   -6.8088   -9.7920 H         1 <0>         0.0717
     72 H33        -5.0125   -5.3872  -11.6999 H         1 <0>         0.0703
     73 H34        -6.3096   -5.9011  -10.5936 H         1 <0>         0.0674
     74 H35        -4.8735   -3.2088  -10.5047 H         1 <0>         0.0520
     75 H36        -6.5010   -3.4866  -11.1692 H         1 <0>         0.0629
     76 H37        -6.6445   -2.6424   -8.8506 H         1 <0>         0.0631
     77 H38        -7.2540   -4.3127   -8.9447 H         1 <0>         0.0696
     78 H39        -5.7908   -4.1200   -7.0013 H         1 <0>         0.0656
     79 H40        -4.4907   -3.4329   -8.0089 H         1 <0>         0.0349
     80 H41        -3.0540    0.9041   -9.2577 H         1 <0>         0.4331
@<TRIPOS>BOND
     1    1    2 1
     2    1   41 1
     3    1   42 1
     4    1   43 1
     5    2    7 ar
     6    2    3 ar
     7    3    4 ar
     8    3   12 1
     9    4    5 ar
    10    4   44 1
    11    5    6 ar
    12    5   45 1
    13    6    7 ar
    14    6   46 1
    15    7    8 1
    16    8    9 1
    17    9   10 2
    18    9   11 1
    19   11   47 1
    20   11   48 1
    21   11   49 1
    22   12   13 2
    23   12   14 am
    24   14   19 1
    25   14   15 1
    26   15   16 1
    27   15   50 1
    28   15   51 1
    29   16   17 1
    30   16   18 1
    31   16   25 1
    32   18   24 1
    33   18   19 1
    34   18   20 1
    35   19   52 1
    36   19   53 1
    37   20   21 1
    38   20   54 1
    39   20   55 1
    40   21   22 1
    41   21   56 1
    42   21   57 1
    43   22   23 1
    44   22   58 1
    45   22   80 1
    46   23   24 1
    47   23   59 1
    48   23   60 1
    49   24   61 1
    50   24   62 1
    51   25   26 2
    52   25   27 am
    53   27   28 1
    54   27   63 1
    55   28   29 1
    56   28   64 1
    57   28   65 1
    58   29   34 ar
    59   29   30 ar
    60   30   31 ar
    61   30   66 1
    62   31   32 ar
    63   31   67 1
    64   32   33 ar
    65   32   68 1
    66   33   34 ar
    67   33   69 1
    68   34   35 1
    69   35   40 1
    70   35   36 1
    71   36   37 1
    72   36   70 1
    73   36   71 1
    74   37   38 1
    75   37   72 1
    76   37   73 1
    77   38   39 1
    78   38   74 1
    79   38   75 1
    80   39   40 1
    81   39   76 1
    82   39   77 1
    83   40   78 1
    84   40   79 1
@<TRIPOS>MOLECULE
ZINC39696050
   77    80     0     0     0
SMALL
USER_CHARGES

@<TRIPOS>ATOM
      1 C1          7.6485   -2.6714   -0.3045 C.3       1 <0>        -0.1499
      2 C2          7.8145   -3.5552    0.9334 C.3       1 <0>        -0.0901
      3 C3          6.8123   -3.1450    1.9814 C.ar      1 <0>        -0.0718
      4 C4          7.1403   -2.1739    2.9089 C.ar      1 <0>        -0.1112
      5 C5          6.2210   -1.7977    3.8703 C.ar      1 <0>        -0.1031
      6 C6          4.9735   -2.3923    3.9039 C.ar      1 <0>        -0.1052
      7 C7          4.6451   -3.3628    2.9759 C.ar      1 <0>        -0.1143
      8 C8          5.5629   -3.7359    2.0118 C.ar      1 <0>        -0.1135
      9 C9          3.9716   -1.9828    4.9526 C.3       1 <0>         0.1863
     10 H1          4.4899   -1.5013    5.7818 H         1 <0>         0.0990
     11 C10         2.9659   -1.0044    4.3426 C.3       1 <0>        -0.1630
     12 N1          3.2642   -3.1689    5.4415 N.am      1 <0>        -0.7212
     13 C11         2.7156   -3.1665    6.6726 C.2       1 <0>         0.5219
     14 O1          2.8077   -2.1826    7.3757 O.2       1 <0>        -0.5195
     15 C12         1.9879   -4.3866    7.1755 C.3       1 <0>        -0.1137
     16 H2          1.5711   -4.9500    6.3407 H         1 <0>         0.1121
     17 C13         0.8697   -3.9780    8.1605 C.3       1 <0>         0.1164
     18 N2          0.8793   -5.0365    9.1977 N.am      1 <0>        -0.6174
     19 C14         2.3166   -5.3309    9.4106 C.3       1 <0>         0.0913
     20 C15         2.9359   -5.2736    8.0000 C.3       1 <0>        -0.0720
     21 C16         4.3262   -4.6484    8.0598 C.3       1 <0>        -0.1489
     22 C17         5.2656   -5.5767    8.8348 C.3       1 <0>        -0.0083
     23 N3          5.3231   -6.8840    8.1698 N.4       1 <0>        -0.5051
     24 C18         4.0002   -7.5194    8.1993 C.3       1 <0>        -0.0123
     25 C19         3.0074   -6.6733    7.3973 C.3       1 <0>        -0.1357
     26 C20        -0.1796   -5.6036    9.8089 C.2       1 <0>         0.5849
     27 O2         -1.3073   -5.3468    9.4341 O.2       1 <0>        -0.5075
     28 C21         0.0300   -6.5366   10.9335 C.ar      1 <0>        -0.0620
     29 C22         1.2286   -6.5102   11.6505 C.ar      1 <0>        -0.2232
     30 C23         1.4222   -7.3847   12.7035 C.ar      1 <0>         0.1403
     31 C24         0.4239   -8.2915   13.0493 C.ar      1 <0>         0.0608
     32 C25        -0.7714   -8.3201   12.3361 C.ar      1 <0>         0.1502
     33 C26        -0.9724   -7.4436   11.2862 C.ar      1 <0>        -0.1702
     34 O3         -1.7445   -9.2074   12.6761 O.3       1 <0>        -0.2953
     35 C27        -2.9452   -9.1818   11.9018 C.3       1 <0>         0.0197
     36 O4          0.6168   -9.1504   14.0846 O.3       1 <0>        -0.3128
     37 C28         0.2105   -8.7060   15.3806 C.3       1 <0>         0.0348
     38 O5          2.5889   -7.3595   13.4019 O.3       1 <0>        -0.2944
     39 C29         3.5696   -6.4041   12.9925 C.3       1 <0>         0.0245
     40 H3          7.8140   -1.6291   -0.0316 H         1 <0>         0.0574
     41 H4          8.3734   -2.9680   -1.0625 H         1 <0>         0.0627
     42 H5          6.6399   -2.7874   -0.7011 H         1 <0>         0.0567
     43 H6          7.6489   -4.5974    0.6605 H         1 <0>         0.0731
     44 H7          8.8231   -3.4392    1.3300 H         1 <0>         0.0740
     45 H8          8.1149   -1.7094    2.8827 H         1 <0>         0.1262
     46 H9          6.4775   -1.0395    4.5953 H         1 <0>         0.1252
     47 H10         3.6706   -3.8275    3.0023 H         1 <0>         0.1180
     48 H11         5.3051   -4.4915    1.2845 H         1 <0>         0.1243
     49 H12         2.2413   -0.7083    5.1011 H         1 <0>         0.0671
     50 H13         3.4923   -0.1220    3.9789 H         1 <0>         0.0727
     51 H14         2.4477   -1.4859    3.5134 H         1 <0>         0.0613
     52 H15         3.1905   -3.9558    4.8792 H         1 <0>         0.3996
     53 H16         1.0910   -3.0079    8.6055 H         1 <0>         0.1010
     54 H17        -0.0941   -3.9529    7.6521 H         1 <0>         0.0994
     55 H18         2.7678   -4.5773   10.0561 H         1 <0>         0.0891
     56 H19         2.4418   -6.3250    9.8399 H         1 <0>         0.0947
     57 H20         4.7062   -4.5087    7.0478 H         1 <0>         0.1001
     58 H21         4.2701   -3.6838    8.5643 H         1 <0>         0.1282
     59 H22         6.2640   -5.1403    8.8648 H         1 <0>         0.1415
     60 H23         4.8939   -5.7027    9.8517 H         1 <0>         0.1294
     61 H24         5.6139   -6.7600    7.2116 H         1 <0>         0.4296
     62 H25         4.0658   -8.5152    7.7609 H         1 <0>         0.1424
     63 H26         3.6586   -7.5991    9.2313 H         1 <0>         0.1310
     64 H27         2.0213   -7.1364    7.4347 H         1 <0>         0.1197
     65 H28         3.3397   -6.6069    6.3613 H         1 <0>         0.0992
     66 H29         2.0036   -5.8075   11.3821 H         1 <0>         0.1439
     67 H30        -1.9017   -7.4629   10.7363 H         1 <0>         0.1513
     68 H31        -3.6357   -9.9371   12.2770 H         1 <0>         0.1112
     69 H32        -3.4065   -8.1973   11.9791 H         1 <0>         0.0631
     70 H33        -2.7092   -9.3915   10.8585 H         1 <0>         0.0612
     71 H34         0.4198   -9.4848   16.1139 H         1 <0>         0.1000
     72 H35         0.7601   -7.8022   15.6436 H         1 <0>         0.0477
     73 H36        -0.8582   -8.4920   15.3728 H         1 <0>         0.0497
     74 H37         3.1556   -5.3993   13.0774 H         1 <0>         0.0611
     75 H38         4.4490   -6.4899   13.6307 H         1 <0>         0.1097
     76 H39         3.8521   -6.5943   11.9571 H         1 <0>         0.0421
     77 H40         5.9887   -7.4736    8.6468 H         1 <0>         0.4347
@<TRIPOS>BOND
     1    1    2 1
     2    1   40 1
     3    1   41 1
     4    1   42 1
     5    2    3 1
     6    2   43 1
     7    2   44 1
     8    3    8 ar
     9    3    4 ar
    10    4    5 ar
    11    4   45 1
    12    5    6 ar
    13    5   46 1
    14    6    7 ar
    15    6    9 1
    16    7    8 ar
    17    7   47 1
    18    8   48 1
    19    9   10 1
    20    9   11 1
    21    9   12 1
    22   11   49 1
    23   11   50 1
    24   11   51 1
    25   12   13 am
    26   12   52 1
    27   13   14 2
    28   13   15 1
    29   15   16 1
    30   15   20 1
    31   15   17 1
    32   17   18 1
    33   17   53 1
    34   17   54 1
    35   18   19 1
    36   18   26 am
    37   19   20 1
    38   19   55 1
    39   19   56 1
    40   20   25 1
    41   20   21 1
    42   21   22 1
    43   21   57 1
    44   21   58 1
    45   22   23 1
    46   22   59 1
    47   22   60 1
    48   23   24 1
    49   23   61 1
    50   23   77 1
    51   24   25 1
    52   24   62 1
    53   24   63 1
    54   25   64 1
    55   25   65 1
    56   26   27 2
    57   26   28 1
    58   28   33 ar
    59   28   29 ar
    60   29   30 ar
    61   29   66 1
    62   30   31 ar
    63   30   38 1
    64   31   32 ar
    65   31   36 1
    66   32   33 ar
    67   32   34 1
    68   33   67 1
    69   34   35 1
    70   35   68 1
    71   35   69 1
    72   35   70 1
    73   36   37 1
    74   37   71 1
    75   37   72 1
    76   37   73 1
    77   38   39 1
    78   39   74 1
    79   39   75 1
    80   39   76 1
@<TRIPOS>MOLECULE
ZINC63383561
   73    78     0     0     0
SMALL
USER_CHARGES

@<TRIPOS>ATOM
      1 C1          0.0619   -2.5648    0.8442 C.3       1 <0>        -0.1525
      2 C2          1.3189   -1.7294    1.0955 C.3       1 <0>        -0.1068
      3 C3          2.3122   -1.9461   -0.0478 C.3       1 <0>        -0.1461
      4 C4          0.9408   -0.2487    1.1689 C.3       1 <0>        -0.1229
      5 C5          0.0800   -0.0030    2.4097 C.3       1 <0>         0.1254
      6 H1         -0.7784   -0.6746    2.3951 H         1 <0>         0.1178
      7 C6          0.8987   -0.2610    3.6483 C.2       1 <0>         0.5143
      8 O1          1.3697    0.6688    4.2684 O.2       1 <0>        -0.5369
      9 N1          1.1075   -1.5250    4.0668 N.am      1 <0>        -0.7153
     10 C7          1.8120   -1.7722    5.3273 C.3       1 <0>         0.1079
     11 C8          1.9149   -3.2799    5.5669 C.3       1 <0>         0.0662
     12 H2          0.9233   -3.7300    5.5203 H         1 <0>         0.0872
     13 C9          2.5476   -3.5486    6.9492 C.3       1 <0>        -0.1479
     14 C10         3.4633   -4.7693    6.6609 C.3       1 <0>        -0.1569
     15 C11         3.9129   -4.4634    5.2099 C.3       1 <0>         0.0486
     16 O2          2.7644   -3.8722    4.5774 O.3       1 <0>        -0.3756
     17 N2         -0.3866    1.3857    2.4132 N.am      1 <0>        -0.7053
     18 C12        -1.5379    1.7114    1.7928 C.2       1 <0>         0.5014
     19 O3         -2.2334    0.8429    1.3103 O.2       1 <0>        -0.5141
     20 C13        -1.9610    3.1547    1.6988 C.3       1 <0>         0.1479
     21 H3         -1.2036    3.7241    1.1600 H         1 <0>         0.1591
     22 C14        -2.1359    3.7365    3.1151 C.3       1 <0>        -0.0951
     23 C15        -3.4512    3.2238    3.6478 C.2       1 <0>         0.0529
     24 C16        -3.7432    2.5946    4.7814 C.ar      1 <0>        -0.1534
     25 C17        -2.9200    2.2595    5.9546 C.ar      1 <0>         0.0009
     26 C18        -3.5460    1.5803    6.9519 C.ar      1 <0>        -0.1573
     27 C19        -4.8923    1.2063    6.9009 C.ar      1 <0>         0.0582
     28 C20        -5.7256    1.4804    5.8658 C.ar      1 <0>        -0.2079
     29 C21        -5.1836    2.1972    4.7595 C.ar      1 <0>         0.3381
     30 N3         -5.7501    2.6037    3.6627 N.pl3     1 <0>        -0.5723
     31 C22        -4.7628    3.3507    2.8811 C.3       1 <0>         0.0855
     32 H4         -5.0564    4.3959    2.7837 H         1 <0>         0.1830
     33 C23        -4.5266    2.7099    1.5087 C.3       1 <0>         0.1912
     34 H5         -4.4857    1.6238    1.5912 H         1 <0>         0.1349
     35 N4         -3.2447    3.2477    0.9910 N.am      1 <0>        -0.6025
     36 C24        -3.4653    3.8321   -0.2004 C.2       1 <0>         0.5741
     37 O4         -2.6019    4.3018   -0.9155 O.2       1 <0>        -0.4856
     38 C25        -4.8960    3.8200   -0.5112 C.ar      1 <0>        -0.1538
     39 C26        -5.5815    3.1283    0.5368 C.ar      1 <0>        -0.1101
     40 C27        -6.9471    2.9506    0.5325 C.ar      1 <0>        -0.0904
     41 C28        -7.6488    3.4732   -0.5500 C.ar      1 <0>        -0.0820
     42 C29        -7.0107    4.1394   -1.5771 C.ar      1 <0>        -0.1102
     43 C30        -5.5983    4.3451   -1.5992 C.ar      1 <0>        -0.0175
     44 H6         -0.4483   -2.1950   -0.0451 H         1 <0>         0.0607
     45 H7          0.3425   -3.6075    0.6950 H         1 <0>         0.0641
     46 H8         -0.6038   -2.4871    1.7038 H         1 <0>         0.0485
     47 H9          1.7759   -2.0348    2.0367 H         1 <0>         0.0809
     48 H10         1.8551   -1.6407   -0.9890 H         1 <0>         0.0568
     49 H11         3.2077   -1.3509    0.1312 H         1 <0>         0.0566
     50 H12         2.5815   -3.0010   -0.1001 H         1 <0>         0.0620
     51 H13         1.8464    0.3549    1.2297 H         1 <0>         0.0769
     52 H14         0.3792    0.0276    0.2765 H         1 <0>         0.0831
     53 H15         0.7914   -2.2710    3.5335 H         1 <0>         0.4086
     54 H16         2.8128   -1.3436    5.2744 H         1 <0>         0.0787
     55 H17         1.2621   -1.3107    6.1475 H         1 <0>         0.0800
     56 H18         3.1353   -2.6922    7.2799 H         1 <0>         0.0832
     57 H19         1.7827   -3.8022    7.6832 H         1 <0>         0.0876
     58 H20         4.3156   -4.7901    7.3401 H         1 <0>         0.0886
     59 H21         2.9016   -5.7021    6.7097 H         1 <0>         0.0818
     60 H22         4.7473   -3.7621    5.2123 H         1 <0>         0.0639
     61 H23         4.1932   -5.3844    4.6987 H         1 <0>         0.0903
     62 H24         0.1332    2.0708    2.8620 H         1 <0>         0.4134
     63 H25        -1.3202    3.4032    3.7568 H         1 <0>         0.1294
     64 H26        -2.1528    4.8254    3.0698 H         1 <0>         0.1451
     65 H27        -1.8782    2.5370    6.0192 H         1 <0>         0.1705
     66 H28        -2.9738    1.3156    7.8287 H         1 <0>         0.1561
     67 H29        -5.2960    0.6622    7.7420 H         1 <0>         0.1595
     68 H30        -6.7592    1.1675    5.8796 H         1 <0>         0.1710
     69 H31        -7.4509    2.4289    1.3329 H         1 <0>         0.1333
     70 H32        -8.7215    3.3540   -0.5878 H         1 <0>         0.1409
     71 H33        -7.5983    4.5247   -2.3972 H         1 <0>         0.1412
     72 H34        -5.0937    4.8639   -2.4008 H         1 <0>         0.1565
     73 H35        -6.6708    2.4396    3.4053 H         1 <0>         0.4546
@<TRIPOS>BOND
     1    1    2 1
     2    1   44 1
     3    1   45 1
     4    1   46 1
     5    2    3 1
     6    2    4 1
     7    2   47 1
     8    3   48 1
     9    3   49 1
    10    3   50 1
    11    4    5 1
    12    4   51 1
    13    4   52 1
    14    5    6 1
    15    5    7 1
    16    5   17 1
    17    7    8 2
    18    7    9 am
    19    9   10 1
    20    9   53 1
    21   10   11 1
    22   10   54 1
    23   10   55 1
    24   11   12 1
    25   11   16 1
    26   11   13 1
    27   13   14 1
    28   13   56 1
    29   13   57 1
    30   14   15 1
    31   14   58 1
    32   14   59 1
    33   15   16 1
    34   15   60 1
    35   15   61 1
    36   17   18 am
    37   17   62 1
    38   18   19 2
    39   18   20 1
    40   20   21 1
    41   20   35 1
    42   20   22 1
    43   22   23 1
    44   22   63 1
    45   22   64 1
    46   23   31 1
    47   23   24 2
    48   24   29 ar
    49   24   25 ar
    50   25   26 ar
    51   25   65 1
    52   26   27 ar
    53   26   66 1
    54   27   28 ar
    55   27   67 1
    56   28   29 ar
    57   28   68 1
    58   29   30 2
    59   30   31 1
    60   30   73 1
    61   31   32 1
    62   31   33 1
    63   33   34 1
    64   33   39 1
    65   33   35 1
    66   35   36 am
    67   36   37 2
    68   36   38 1
    69   38   43 ar
    70   38   39 ar
    71   39   40 ar
    72   40   41 ar
    73   40   69 1
    74   41   42 ar
    75   41   70 1
    76   42   43 ar
    77   42   71 1
    78   43   72 1
@<TRIPOS>MOLECULE
ZINC09376283
   58    60     0     0     0
SMALL
USER_CHARGES
2-[4-[(4-acetyl-3,5-dimethyl-1H-pyrrol-2-yl)carbonyl]piperazin-1-yl]-N-[4-chloro-3-(trifluoromethyl)phenyl]-acetamide
@<TRIPOS>ATOM
      1 C1          9.0062   -0.0350    3.6335 C.3       1 <0>        -0.1106
      2 C2          8.3249    0.6114    2.4550 C.2       1 <0>        -0.0090
      3 C3          8.7980    1.7199    1.7123 C.2       1 <0>        -0.2460
      4 C4          7.8566    1.9792    0.7284 C.2       1 <0>         0.1120
      5 N1          6.8637    1.0857    0.8483 N.pl3     1 <0>        -0.5382
      6 H1          6.0764    1.0425    0.2833 H         1 <0>         0.4133
      7 C5          7.1377    0.2383    1.9003 C.2       1 <0>        -0.0837
      8 C6          6.2908   -0.8736    2.3508 C.2       1 <0>         0.6060
      9 O1          6.2913   -1.2029    3.5221 O.2       1 <0>        -0.4888
     10 N2          5.5131   -1.5293    1.4667 N.am      1 <0>        -0.6356
     11 C7          5.5714   -1.2147    0.0312 C.3       1 <0>         0.0655
     12 C8          4.1451   -0.9666   -0.4712 C.3       1 <0>        -0.0213
     13 C9          3.1964   -2.2770    1.3355 C.3       1 <0>        -0.0245
     14 C10         4.5838   -2.5788    1.9119 C.3       1 <0>         0.0947
     15 C11         1.9690   -1.9956   -0.7326 C.3       1 <0>        -0.0251
     16 C12         1.2184   -3.2910   -0.5603 C.2       1 <0>         0.5026
     17 O2          1.7402   -4.2223    0.0154 O.2       1 <0>        -0.5057
     18 N3         -0.0307   -3.4164   -1.0508 N.am      1 <0>        -0.6431
     19 C13        -0.6839   -4.6530   -0.9942 C.ar      1 <0>         0.1251
     20 C14         0.0437   -5.8301   -1.1134 C.ar      1 <0>        -0.0709
     21 C15        -0.6026   -7.0489   -1.0526 C.ar      1 <0>        -0.0883
     22 C16        -1.9753   -7.0980   -0.8835 C.ar      1 <0>         0.0053
     23 C17        -2.7031   -5.9268   -0.7697 C.ar      1 <0>        -0.1544
     24 C18        -2.0609   -4.7051   -0.8247 C.ar      1 <0>        -0.0737
     25 C19        -4.1977   -5.9840   -0.5852 C.3       1 <0>         0.5095
     26 F1         -4.7066   -4.6839   -0.4955 F         1 <0>        -0.1728
     27 F2         -4.7778   -6.6376   -1.6777 F         1 <0>        -0.1635
     28 F3         -4.4961   -6.6836    0.5890 F         1 <0>        -0.1637
     29 Cl1        -2.7855   -8.6318   -0.8134 Cl        1 <0>        -0.0213
     30 C20         7.9352    3.0779   -0.3000 C.3       1 <0>        -0.1020
     31 C21        10.0442    2.4569    1.9433 C.2       1 <0>         0.4280
     32 O3         10.0328    3.4776    2.5990 O.2       1 <0>        -0.4398
     33 C22        11.3395    1.9466    1.3662 C.3       1 <0>        -0.1893
     34 H2          9.6679   -0.8265    3.2815 H         1 <0>         0.0784
     35 H3          9.5887    0.7130    4.1716 H         1 <0>         0.0742
     36 H4          8.2550   -0.4589    4.2999 H         1 <0>         0.0891
     37 H5          6.0095   -2.0534   -0.5100 H         1 <0>         0.1072
     38 H6          6.1758   -0.3214   -0.1266 H         1 <0>         0.1314
     39 H7          4.1575   -0.8407   -1.5538 H         1 <0>         0.1496
     40 H8          3.7464   -0.0657   -0.0048 H         1 <0>         0.1386
     41 H9          2.8111   -1.3580    1.7771 H         1 <0>         0.1355
     42 H10         2.5207   -3.1015    1.5632 H         1 <0>         0.1565
     43 H11         4.9269   -3.5486    1.5515 H         1 <0>         0.1010
     44 H12         4.5342   -2.5863    3.0007 H         1 <0>         0.1405
     45 H13         2.0760   -1.7762   -1.7949 H         1 <0>         0.1678
     46 H14         1.4179   -1.1892   -0.2487 H         1 <0>         0.1672
     47 H15        -0.4770   -2.6496   -1.4429 H         1 <0>         0.4254
     48 H16         1.1143   -5.7922   -1.2499 H         1 <0>         0.1522
     49 H17        -0.0368   -7.9646   -1.1415 H         1 <0>         0.1575
     50 H18        -2.6295   -3.7911   -0.7362 H         1 <0>         0.1562
     51 H19         7.4727    3.9814    0.0974 H         1 <0>         0.0906
     52 H20         8.9798    3.2789   -0.5378 H         1 <0>         0.0920
     53 H21         7.4100    2.7681   -1.2035 H         1 <0>         0.0763
     54 H22        11.5142    2.3962    0.4902 H         1 <0>         0.0890
     55 H23        12.1552    2.1645    2.0555 H         1 <0>         0.0927
     56 H24        11.2701    0.8694    1.2144 H         1 <0>         0.0848
     57 N4          3.3115   -2.1406   -0.1328 N.4       1 <0>        -0.3814
     58 H25         3.7564   -2.9849   -0.5115 H         1 <0>         0.4371
@<TRIPOS>BOND
     1    1    2 1
     2    1   34 1
     3    1   35 1
     4    1   36 1
     5    2    7 2
     6    2    3 1
     7    3    4 2
     8    3   31 1
     9    4    5 1
    10    4   30 1
    11    5    6 1
    12    5    7 1
    13    7    8 1
    14    8    9 2
    15    8   10 am
    16   10   14 1
    17   10   11 1
    18   11   12 1
    19   11   37 1
    20   11   38 1
    21   12   39 1
    22   12   40 1
    23   12   57 1
    24   13   14 1
    25   13   41 1
    26   13   42 1
    27   13   57 1
    28   14   43 1
    29   14   44 1
    30   15   16 1
    31   15   45 1
    32   15   46 1
    33   15   57 1
    34   16   17 2
    35   16   18 am
    36   18   19 1
    37   18   47 1
    38   19   24 ar
    39   19   20 ar
    40   20   21 ar
    41   20   48 1
    42   21   22 ar
    43   21   49 1
    44   22   23 ar
    45   22   29 1
    46   23   24 ar
    47   23   25 1
    48   24   50 1
    49   25   26 1
    50   25   27 1
    51   25   28 1
    52   30   51 1
    53   30   52 1
    54   30   53 1
    55   31   32 2
    56   31   33 1
    57   33   54 1
    58   33   55 1
    59   33   56 1
    60   57   58 1
@<TRIPOS>MOLECULE
ZINC31679469
   49    51     0     0     0
SMALL
USER_CHARGES
(2S)-2-(2-bromo-4-fluoro-phenoxy)-N-[3-(3,4-dihydro-2H-pyrrol-5-ylsulfamoyl)phenyl]propanamide
@<TRIPOS>ATOM
      1 C1          6.9901   -2.3017   -3.8014 C.3       1 <0>        -0.1840
      2 C2          5.5191   -2.4612   -4.1907 C.3       1 <0>         0.0675
      3 H1          4.9946   -3.1586   -3.5210 H         1 <0>         0.1093
      4 C3          4.8468   -1.1125   -4.1772 C.2       1 <0>         0.5235
      5 O1          4.3423   -0.6761   -5.1901 O.2       1 <0>        -0.4815
      6 N1          4.8061   -0.3912   -3.0394 N.am      1 <0>        -0.6901
      7 C4          4.0978    0.8148   -3.0005 C.ar      1 <0>         0.1615
      8 C5          4.0752    1.6449   -4.1139 C.ar      1 <0>        -0.0484
      9 C6          3.3757    2.8347   -4.0722 C.ar      1 <0>        -0.0988
     10 C7          2.6983    3.2005   -2.9231 C.ar      1 <0>        -0.0163
     11 C8          2.7192    2.3767   -1.8130 C.ar      1 <0>        -0.6775
     12 C9          3.4211    1.1874   -1.8467 C.ar      1 <0>        -0.0830
     13 S1          1.8557    2.8478   -0.3511 S.o2      1 <0>         2.6485
     14 O2          1.7338    4.2630   -0.3897 O.2       1 <0>        -0.8822
     15 O3          2.4810    2.1661    0.7275 O.2       1 <0>        -0.9218
     16 N2          0.3210    2.2372   -0.4708 N.pl3     1 <0>        -1.0249
     17 C10         0.1222    0.8817   -0.4846 C.cat     1 <0>         0.5325
     18 N3          1.0628    0.0062   -0.4092 N.pl3     1 <0>        -0.6083
     19 C11         0.5493   -1.3679   -0.4454 C.3       1 <0>         0.0646
     20 C12        -0.8971   -1.2451   -0.9787 C.3       1 <0>        -0.1346
     21 C13        -1.2321    0.2155   -0.5841 C.3       1 <0>        -0.1233
     22 O4          5.4315   -3.0239   -5.5014 O.3       1 <0>        -0.2734
     23 C14         5.4855   -4.3791   -5.5961 C.ar      1 <0>         0.1419
     24 C15         5.7300   -5.1448   -4.4659 C.ar      1 <0>        -0.1802
     25 C16         5.7789   -6.5221   -4.5624 C.ar      1 <0>        -0.0958
     26 C17         5.5953   -7.1381   -5.7889 C.ar      1 <0>         0.0781
     27 C18         5.3569   -6.3754   -6.9193 C.ar      1 <0>        -0.0850
     28 C19         5.3017   -4.9973   -6.8248 C.ar      1 <0>        -0.0958
     29 Br1         4.9753   -3.9554   -8.3688 Br        1 <0>        -0.0096
     30 F1          5.6495   -8.4847   -5.8825 F         1 <0>        -0.1277
     31 H2          7.4808   -3.2861   -3.8113 H         1 <0>         0.0875
     32 H3          7.0575   -1.8685   -2.7925 H         1 <0>         0.0827
     33 H4          7.4896   -1.6358   -4.5205 H         1 <0>         0.0850
     34 H5          5.3298   -0.7506   -2.1413 H         1 <0>         0.4441
     35 H6          4.6039    1.3598   -5.0115 H         1 <0>         0.1598
     36 H7          3.3577    3.4806   -4.9376 H         1 <0>         0.1538
     37 H8          2.1522    4.1317   -2.8929 H         1 <0>         0.1550
     38 H9          3.4407    0.5465   -0.9776 H         1 <0>         0.1319
     39 H10        -0.5388    2.9199   -0.5392 H         1 <0>         0.5054
     40 H11         1.1766   -1.9763   -1.1135 H         1 <0>         0.1279
     41 H12         0.5720   -1.7947    0.5682 H         1 <0>         0.1302
     42 H13        -0.9035   -1.4198   -2.0647 H         1 <0>         0.1120
     43 H14        -1.5352   -1.9918   -0.4835 H         1 <0>         0.1323
     44 H15        -1.7434    0.2772    0.3879 H         1 <0>         0.1539
     45 H16        -1.8362    0.7252   -1.3491 H         1 <0>         0.1456
     46 H17         5.8777   -4.6647   -3.5098 H         1 <0>         0.1471
     47 H18         5.9645   -7.1185   -3.6814 H         1 <0>         0.1495
     48 H19         5.2142   -6.8571   -7.8753 H         1 <0>         0.1568
     49 H20         2.1108    0.3305   -0.3287 H         1 <0>         0.4547
@<TRIPOS>BOND
     1    1    2 1
     2    1   31 1
     3    1   32 1
     4    1   33 1
     5    2    3 1
     6    2    4 1
     7    2   22 1
     8    4    5 2
     9    4    6 am
    10    6    7 1
    11    6   34 1
    12    7   12 ar
    13    7    8 ar
    14    8    9 ar
    15    8   35 1
    16    9   10 ar
    17    9   36 1
    18   10   11 ar
    19   10   37 1
    20   11   12 ar
    21   11   13 1
    22   12   38 1
    23   13   14 2
    24   13   15 2
    25   13   16 1
    26   16   17 1
    27   16   39 1
    28   17   21 1
    29   17   18 2
    30   18   19 1
    31   18   49 1
    32   19   20 1
    33   19   40 1
    34   19   41 1
    35   20   21 1
    36   20   42 1
    37   20   43 1
    38   21   44 1
    39   21   45 1
    40   22   23 1
    41   23   28 ar
    42   23   24 ar
    43   24   25 ar
    44   24   46 1
    45   25   26 ar
    46   25   47 1
    47   26   27 ar
    48   26   30 1
    49   27   28 ar
    50   27   48 1
    51   28   29 1
@<TRIPOS>MOLECULE
ZINC39674248
   62    65     0     0     0
SMALL
USER_CHARGES

@<TRIPOS>ATOM
      1 C1         -3.0476   -0.7359   -4.3907 C.3       1 <0>        -0.1184
      2 C2         -2.7404   -2.0037   -3.5912 C.3       1 <0>        -0.0354
      3 H1         -3.6068   -2.6648   -3.5716 H         1 <0>         0.1478
      4 C3         -2.2988   -1.6553   -2.1808 C.2       1 <0>        -0.1663
      5 C4         -1.0568   -2.1384   -2.1045 C.2       1 <0>         0.0008
      6 N1         -0.6972   -2.7242   -3.2681 N.2       1 <0>        -0.1582
      7 N2         -1.5672   -2.6989   -4.1475 N.2       1 <0>        -0.1404
      8 C5         -0.1752   -2.0436   -0.8860 C.3       1 <0>        -0.0983
      9 C6         -3.0808   -0.9318   -1.1149 C.3       1 <0>         0.2123
     10 H2         -2.4706   -0.8390   -0.2165 H         1 <0>         0.1106
     11 C7         -4.3506   -1.7210   -0.7897 C.3       1 <0>        -0.1609
     12 N3         -3.4453    0.4025   -1.5977 N.am      1 <0>        -0.7256
     13 C8         -3.7104    1.3883   -0.7177 C.2       1 <0>         0.5227
     14 O1         -3.6472    1.1708    0.4738 O.2       1 <0>        -0.5135
     15 C9         -4.0853    2.7609   -1.2143 C.3       1 <0>        -0.1141
     16 H3         -3.6188    2.9548   -2.1801 H         1 <0>         0.1131
     17 C10        -3.6657    3.8373   -0.1883 C.3       1 <0>         0.1169
     18 N4         -4.7561    4.8400   -0.2306 N.am      1 <0>        -0.6177
     19 C11        -5.9937    4.0336   -0.3577 C.3       1 <0>         0.0894
     20 C12        -5.6138    2.8923   -1.3219 C.3       1 <0>        -0.0724
     21 C13        -6.2876    1.5928   -0.8919 C.3       1 <0>        -0.1507
     22 C14        -7.8033    1.7279   -1.0631 C.3       1 <0>        -0.0091
     23 N5         -8.1147    2.0228   -2.4669 N.4       1 <0>        -0.5049
     24 C15        -7.5407    3.3197   -2.8453 C.3       1 <0>        -0.0123
     25 C16        -6.0140    3.2519   -2.7496 C.3       1 <0>        -0.1365
     26 C17        -4.6473    6.1819   -0.1680 C.2       1 <0>         0.5862
     27 O2         -3.5492    6.7031   -0.1650 O.2       1 <0>        -0.5017
     28 C18        -5.8636    7.0200   -0.1031 C.ar      1 <0>        -0.1077
     29 C19        -7.0672    6.4744    0.3457 C.ar      1 <0>        -0.0985
     30 C20        -8.1999    7.2621    0.4041 C.ar      1 <0>        -0.0336
     31 C21        -8.1431    8.5906    0.0185 C.ar      1 <0>        -0.0736
     32 C22        -6.9521    9.1374   -0.4280 C.ar      1 <0>        -0.0264
     33 C23        -5.8114    8.3613   -0.4850 C.ar      1 <0>        -0.0454
     34 Cl1        -6.8911   10.8039   -0.9104 Cl        1 <0>        -0.0294
     35 Cl2        -9.6981    6.5851    0.9615 Cl        1 <0>        -0.0442
     36 H4         -3.1016   -0.9796   -5.4517 H         1 <0>         0.0887
     37 H5         -4.0017   -0.3224   -4.0638 H         1 <0>         0.0665
     38 H6         -2.2583   -0.0024   -4.2261 H         1 <0>         0.0669
     39 H7         -0.3325   -2.9182   -0.2547 H         1 <0>         0.0871
     40 H8          0.8691   -2.0019   -1.1955 H         1 <0>         0.0869
     41 H9         -0.4245   -1.1420   -0.3264 H         1 <0>         0.0782
     42 H10        -4.0794   -2.7137   -0.4306 H         1 <0>         0.0770
     43 H11        -4.9162   -1.1977   -0.0188 H         1 <0>         0.0718
     44 H12        -4.9608   -1.8138   -1.6881 H         1 <0>         0.0583
     45 H13        -3.4958    0.5764   -2.5506 H         1 <0>         0.3999
     46 H14        -3.5876    3.4026    0.8082 H         1 <0>         0.1033
     47 H15        -2.7194    4.2925   -0.4806 H         1 <0>         0.1008
     48 H16        -6.2872    3.6317    0.6121 H         1 <0>         0.0939
     49 H17        -6.7982    4.6355   -0.7803 H         1 <0>         0.0945
     50 H18        -5.9233    0.7722   -1.5099 H         1 <0>         0.0988
     51 H19        -6.0561    1.3918    0.1541 H         1 <0>         0.1289
     52 H20        -8.2861    0.7950   -0.7722 H         1 <0>         0.1416
     53 H21        -8.1692    2.5379   -0.4321 H         1 <0>         0.1337
     54 H22        -7.7269    1.3004   -3.0550 H         1 <0>         0.4284
     55 H23        -7.8301    3.5602   -3.8683 H         1 <0>         0.1425
     56 H24        -7.9128    4.0918   -2.1719 H         1 <0>         0.1322
     57 H25        -5.5895    4.2206   -3.0134 H         1 <0>         0.1205
     58 H26        -5.6399    2.4913   -3.4348 H         1 <0>         0.0984
     59 H27        -7.1127    5.4381    0.6464 H         1 <0>         0.1488
     60 H28        -9.0316    9.2027    0.0659 H         1 <0>         0.1550
     61 H29        -4.8818    8.7902   -0.8288 H         1 <0>         0.1568
     62 H30        -9.1159    2.0510   -2.5892 H         1 <0>         0.4356
@<TRIPOS>BOND
     1    1    2 1
     2    1   36 1
     3    1   37 1
     4    1   38 1
     5    2    3 1
     6    2    7 1
     7    2    4 1
     8    4    5 2
     9    4    9 1
    10    5    6 1
    11    5    8 1
    12    6    7 2
    13    8   39 1
    14    8   40 1
    15    8   41 1
    16    9   10 1
    17    9   11 1
    18    9   12 1
    19   11   42 1
    20   11   43 1
    21   11   44 1
    22   12   13 am
    23   12   45 1
    24   13   14 2
    25   13   15 1
    26   15   16 1
    27   15   20 1
    28   15   17 1
    29   17   18 1
    30   17   46 1
    31   17   47 1
    32   18   19 1
    33   18   26 am
    34   19   20 1
    35   19   48 1
    36   19   49 1
    37   20   25 1
    38   20   21 1
    39   21   22 1
    40   21   50 1
    41   21   51 1
    42   22   23 1
    43   22   52 1
    44   22   53 1
    45   23   24 1
    46   23   54 1
    47   23   62 1
    48   24   25 1
    49   24   55 1
    50   24   56 1
    51   25   57 1
    52   25   58 1
    53   26   27 2
    54   26   28 1
    55   28   33 ar
    56   28   29 ar
    57   29   30 ar
    58   29   59 1
    59   30   31 ar
    60   30   35 1
    61   31   32 ar
    62   31   60 1
    63   32   33 ar
    64   32   34 1
    65   33   61 1
@<TRIPOS>MOLECULE
ZINC39982673
   63    67     0     0     0
SMALL
USER_CHARGES

@<TRIPOS>ATOM
      1 C1         -0.0187    1.5258    0.0104 C.3       1 <0>        -0.1399
      2 C2          0.0021   -0.0041    0.0020 C.3       1 <0>        -0.0984
      3 C3          0.7421   -0.5109    1.2415 C.3       1 <0>        -0.1506
      4 C4         -1.4333   -0.5336    0.0129 C.3       1 <0>         0.1952
      5 H1         -1.9435   -0.1821    0.9097 H         1 <0>         0.1034
      6 C5         -1.4129   -2.0405    0.0046 C.ar      1 <0>        -0.0860
      7 C6         -1.2010   -2.7202   -1.1806 C.ar      1 <0>        -0.1102
      8 C7         -1.1806   -4.1033   -1.1959 C.ar      1 <0>        -0.1114
      9 C8         -1.3727   -4.8056   -0.0181 C.ar      1 <0>         0.0719
     10 C9         -1.5852   -4.1235    1.1713 C.ar      1 <0>         0.0758
     11 C10        -1.6005   -2.7390    1.1839 C.ar      1 <0>        -0.0999
     12 O1         -1.7725   -4.8251    2.3268 O.3       1 <0>        -0.3173
     13 C11        -2.9885   -5.5706    2.4149 C.3       1 <0>         0.0608
     14 C12        -2.8387   -6.9281    1.7463 C.3       1 <0>        -0.1906
     15 C13        -2.6017   -6.8127    0.2486 C.3       1 <0>         0.0612
     16 O2         -1.3535   -6.1702   -0.0189 O.3       1 <0>        -0.3187
     17 N1         -2.1419   -0.0483   -1.1740 N.am      1 <0>        -0.7169
     18 C14        -2.7269    1.1657   -1.1601 C.2       1 <0>         0.5314
     19 O3         -2.6668    1.8565   -0.1650 O.2       1 <0>        -0.5002
     20 C15        -3.4558    1.6650   -2.3810 C.3       1 <0>        -0.1375
     21 S1         -4.1279    3.3171   -2.0505 S.3       1 <0>        -0.1060
     22 C16        -4.9628    3.7685   -3.5964 C.3       1 <0>         0.2923
     23 H2         -5.3999    4.7637   -3.5153 H         1 <0>         0.1616
     24 N2         -5.9999    2.7770   -3.9291 N.pl3     1 <0>        -0.5939
     25 N3         -5.6171    2.2324   -5.1635 N.2       1 <0>        -0.1516
     26 C17        -4.5045    2.7826   -5.5719 C.2       1 <0>         0.1947
     27 O4         -4.0439    3.7132   -4.6965 O.3       1 <0>        -0.3004
     28 C18        -3.8621    2.4525   -6.7733 C.2       1 <0>         0.1307
     29 C19        -4.2768    1.5171   -7.7226 C.ar      1 <0>        -0.1324
     30 C20        -5.3929    0.6563   -7.7881 C.ar      1 <0>        -0.0207
     31 C21        -5.5464   -0.1674   -8.8568 C.ar      1 <0>        -0.1409
     32 C22        -4.6222   -0.1872   -9.9035 C.ar      1 <0>         0.0460
     33 C23        -3.5274    0.6126   -9.9062 C.ar      1 <0>        -0.2019
     34 C24        -3.2996    1.5003   -8.8231 C.ar      1 <0>         0.3163
     35 N4         -2.3300    2.3638   -8.5923 N.pl3     1 <0>        -0.5905
     36 C25        -2.5778    3.0402   -7.3154 C.3       1 <0>         0.0850
     37 H3          1.0039    1.9031    0.0027 H         1 <0>         0.0530
     38 H4         -0.5459    1.8868   -0.8726 H         1 <0>         0.0475
     39 H5         -0.5289    1.8773    0.9072 H         1 <0>         0.0666
     40 H6          0.5123   -0.3556   -0.8948 H         1 <0>         0.0723
     41 H7          0.2319   -0.1594    2.1383 H         1 <0>         0.0597
     42 H8          0.7568   -1.6008    1.2356 H         1 <0>         0.0605
     43 H9          1.7647   -0.1336    1.2338 H         1 <0>         0.0623
     44 H10        -1.0513   -2.1695   -2.0975 H         1 <0>         0.1261
     45 H11        -1.0158   -4.6331   -2.1225 H         1 <0>         0.1375
     46 H12        -1.7619   -2.2068    2.1097 H         1 <0>         0.1390
     47 H13        -3.2462   -5.7140    3.4643 H         1 <0>         0.1088
     48 H14        -3.7866   -5.0145    1.9231 H         1 <0>         0.0572
     49 H15        -1.9967   -7.4530    2.1976 H         1 <0>         0.0874
     50 H16        -3.7460   -7.5076    1.9165 H         1 <0>         0.0946
     51 H17        -2.5934   -7.8099   -0.1912 H         1 <0>         0.1078
     52 H18        -3.4078   -6.2309   -0.1984 H         1 <0>         0.0567
     53 H19        -2.1900   -0.6008   -1.9698 H         1 <0>         0.3993
     54 H20        -2.7639    1.7156   -3.2218 H         1 <0>         0.1107
     55 H21        -4.2709    0.9826   -2.6218 H         1 <0>         0.1124
     56 H22        -6.7831    2.5485   -3.4044 H         1 <0>         0.4715
     57 H23        -6.1219    0.6523   -6.9913 H         1 <0>         0.1609
     58 H24        -6.4036   -0.8230   -8.8981 H         1 <0>         0.1572
     59 H25        -4.7838   -0.8586  -10.7338 H         1 <0>         0.1623
     60 H26        -2.8309    0.5744  -10.7307 H         1 <0>         0.1626
     61 H27        -2.6929    4.1126   -7.4726 H         1 <0>         0.1808
     62 H28        -1.7564    2.8475   -6.6253 H         1 <0>         0.1783
     63 H29        -1.5736    2.5281   -9.1769 H         1 <0>         0.4569
@<TRIPOS>BOND
     1    1    2 1
     2    1   37 1
     3    1   38 1
     4    1   39 1
     5    2    3 1
     6    2    4 1
     7    2   40 1
     8    3   41 1
     9    3   42 1
    10    3   43 1
    11    4    5 1
    12    4    6 1
    13    4   17 1
    14    6   11 ar
    15    6    7 ar
    16    7    8 ar
    17    7   44 1
    18    8    9 ar
    19    8   45 1
    20    9   16 1
    21    9   10 ar
    22   10   11 ar
    23   10   12 1
    24   11   46 1
    25   12   13 1
    26   13   14 1
    27   13   47 1
    28   13   48 1
    29   14   15 1
    30   14   49 1
    31   14   50 1
    32   15   16 1
    33   15   51 1
    34   15   52 1
    35   17   18 am
    36   17   53 1
    37   18   19 2
    38   18   20 1
    39   20   21 1
    40   20   54 1
    41   20   55 1
    42   21   22 1
    43   22   23 1
    44   22   27 1
    45   22   24 1
    46   24   25 1
    47   24   56 1
    48   25   26 2
    49   26   27 1
    50   26   28 1
    51   28   36 1
    52   28   29 2
    53   29   34 ar
    54   29   30 ar
    55   30   31 ar
    56   30   57 1
    57   31   32 ar
    58   31   58 1
    59   32   33 ar
    60   32   59 1
    61   33   34 ar
    62   33   60 1
    63   34   35 2
    64   35   36 1
    65   35   63 1
    66   36   61 1
    67   36   62 1
@<TRIPOS>MOLECULE
ZINC63731499
   55    58     0     0     0
SMALL
USER_CHARGES

@<TRIPOS>ATOM
      1 C1         -0.0184    1.5028    0.0103 C.3       1 <0>        -0.1802
      2 C2          0.0021   -0.0041    0.0020 C.2       1 <0>         0.5147
      3 O1          1.0605   -0.5961   -0.0113 O.2       1 <0>        -0.5057
      4 N1         -1.1558   -0.6938    0.0094 N.am      1 <0>        -0.7333
      5 C3         -1.1360   -2.1586    0.0013 C.3       1 <0>         0.1726
      6 H1         -2.1585   -2.5359    0.0091 H         1 <0>         0.1335
      7 C4         -0.4198   -2.6520   -1.2575 C.3       1 <0>        -0.1096
      8 C5         -1.2151   -2.2574   -2.4752 C.2       1 <0>         0.0684
      9 C6         -1.0328   -1.1604   -3.2451 C.ar      1 <0>        -0.1615
     10 C7         -0.0769   -0.0484   -3.1811 C.ar      1 <0>        -0.0168
     11 C8         -0.1429    0.9279   -4.1147 C.ar      1 <0>        -0.1499
     12 C9         -1.0992    0.9046   -5.1392 C.ar      1 <0>         0.0571
     13 C10        -2.0105   -0.0835   -5.2638 C.ar      1 <0>        -0.2105
     14 C11        -2.0325   -1.1620   -4.3370 C.ar      1 <0>         0.3290
     15 N2         -2.8028   -2.2188   -4.2457 N.pl3     1 <0>        -0.5853
     16 C12        -2.3745   -3.0112   -3.0876 C.3       1 <0>         0.0614
     17 C13        -0.4071   -2.6578    1.2222 C.2       1 <0>         0.4458
     18 O2          0.3473   -1.9251    1.8171 O.2       1 <0>        -0.4508
     19 O3         -0.5959   -3.9165    1.6487 O.3       1 <0>        -0.3571
     20 C14         0.1273   -4.3225    2.8124 C.3       1 <0>         0.0718
     21 C15        -0.2143   -5.7766    3.1436 C.3       1 <0>         0.0847
     22 H2         -1.2940   -5.8870    3.2453 H         1 <0>         0.0705
     23 C16         0.4727   -6.1845    4.4505 C.3       1 <0>        -0.1234
     24 C17         0.3770   -7.6745    4.6203 C.2       1 <0>         0.5258
     25 O4          0.5941   -8.1491    5.7152 O.2       1 <0>        -0.5105
     26 N3          0.0616   -8.5015    3.6136 N.am      1 <0>        -0.5500
     27 C18        -0.0104   -9.8717    3.8671 C.2       1 <0>         0.1513
     28 C19         0.2784  -10.7312    2.8785 C.2       1 <0>        -0.1656
     29 C20         0.6656  -10.2121    1.5598 C.2       1 <0>        -0.0667
     30 C21         0.4382   -8.9366    1.2558 C.2       1 <0>        -0.1751
     31 C22        -0.2223   -8.0253    2.2599 C.3       1 <0>         0.3496
     32 H3         -1.2999   -8.0294    2.0955 H         1 <0>         0.0660
     33 N4          0.2765   -6.6588    2.0726 N.3       1 <0>        -0.6810
     34 Br1         0.1885  -12.5958    3.1800 Br        1 <0>        -0.0222
     35 H4          1.0042    1.8801    0.0026 H         1 <0>         0.1022
     36 H5         -0.5455    1.8639   -0.8728 H         1 <0>         0.0885
     37 H6         -0.5286    1.8543    0.9071 H         1 <0>         0.0964
     38 H7         -2.0023   -0.2203    0.0200 H         1 <0>         0.4148
     39 H8          0.5723   -2.2036   -1.3105 H         1 <0>         0.1369
     40 H9         -0.3265   -3.7374   -1.2206 H         1 <0>         0.1316
     41 H10         0.6678   -0.0101   -2.3999 H         1 <0>         0.1584
     42 H11         0.5595    1.7471   -4.0695 H         1 <0>         0.1587
     43 H12        -1.1076    1.7104   -5.8582 H         1 <0>         0.1619
     44 H13        -2.7269   -0.0547   -6.0715 H         1 <0>         0.1612
     45 H14        -2.0518   -4.0023   -3.4064 H         1 <0>         0.1763
     46 H15        -3.1901   -3.0940   -2.3693 H         1 <0>         0.1733
     47 H16         1.1973   -4.2345    2.6242 H         1 <0>         0.0903
     48 H17        -0.1477   -3.6843    3.6522 H         1 <0>         0.0868
     49 H18         1.5213   -5.8889    4.4177 H         1 <0>         0.1211
     50 H19        -0.0185   -5.6908    5.2890 H         1 <0>         0.1193
     51 H20        -0.2939  -10.2346    4.8440 H         1 <0>         0.1692
     52 H21         1.1338  -10.8649    0.8380 H         1 <0>         0.1385
     53 H22         0.7274   -8.5533    0.2884 H         1 <0>         0.1410
     54 H23         0.0211   -6.3014    1.1642 H         1 <0>         0.3699
     55 H24        -3.5316   -2.4416   -4.8458 H         1 <0>         0.4564
@<TRIPOS>BOND
     1    1    2 1
     2    1   35 1
     3    1   36 1
     4    1   37 1
     5    2    3 2
     6    2    4 am
     7    4    5 1
     8    4   38 1
     9    5    6 1
    10    5    7 1
    11    5   17 1
    12    7    8 1
    13    7   39 1
    14    7   40 1
    15    8   16 1
    16    8    9 2
    17    9   14 ar
    18    9   10 ar
    19   10   11 ar
    20   10   41 1
    21   11   12 ar
    22   11   42 1
    23   12   13 ar
    24   12   43 1
    25   13   14 ar
    26   13   44 1
    27   14   15 2
    28   15   16 1
    29   15   55 1
    30   16   45 1
    31   16   46 1
    32   17   18 2
    33   17   19 1
    34   19   20 1
    35   20   21 1
    36   20   47 1
    37   20   48 1
    38   21   22 1
    39   21   33 1
    40   21   23 1
    41   23   24 1
    42   23   49 1
    43   23   50 1
    44   24   25 2
    45   24   26 am
    46   26   31 1
    47   26   27 1
    48   27   28 2
    49   27   51 1
    50   28   29 1
    51   28   34 1
    52   29   30 2
    53   29   52 1
    54   30   31 1
    55   30   53 1
    56   31   32 1
    57   31   33 1
    58   33   54 1
@<TRIPOS>MOLECULE
ZINC11812977
   69    74     0     0     0
SMALL
USER_CHARGES
N-(1,3-benzodioxol-5-ylmethyl)-5-[1-[[(1S)-1-cyclohex-3-enyl]methyl]-4-hydroxy-4-piperidyl]benzofuran-2-carboxamide
@<TRIPOS>ATOM
      1 C1        -17.1246   -3.5860   -0.2333 C.ar      1 <0>        -0.0853
      2 C2        -18.1736   -2.9579    0.4127 C.ar      1 <0>        -0.1021
      3 C3        -19.0218   -2.1217   -0.2941 C.ar      1 <0>         0.0464
      4 C4        -18.8112   -1.9105   -1.6549 C.ar      1 <0>         0.0314
      5 C5        -17.7548   -2.5382   -2.2940 C.ar      1 <0>        -0.0803
      6 C6        -16.9125   -3.3724   -1.5822 C.ar      1 <0>        -0.1093
      7 C7        -15.7644   -4.0549   -2.2801 C.3       1 <0>         0.1652
      8 N1        -14.5755   -3.2014   -2.2134 N.am      1 <0>        -0.7113
      9 C8        -13.4204   -3.6099   -2.7749 C.2       1 <0>         0.5977
     10 O1        -13.3649   -4.6874   -3.3370 O.2       1 <0>        -0.5046
     11 C9        -12.2277   -2.7536   -2.7081 C.2       1 <0>        -0.0137
     12 C10       -11.0147   -3.0604   -3.2364 C.2       1 <0>        -0.1120
     13 C11       -10.1417   -1.9275   -2.9312 C.ar      1 <0>        -0.1351
     14 C12        -8.8017   -1.6323   -3.1938 C.ar      1 <0>        -0.0417
     15 C13        -8.2707   -0.4510   -2.7589 C.ar      1 <0>        -0.1451
     16 C14        -9.0524    0.4543   -2.0540 C.ar      1 <0>        -0.0825
     17 C15       -10.3775    0.1845   -1.7893 C.ar      1 <0>        -0.0967
     18 C16       -10.9401   -1.0111   -2.2217 C.ar      1 <0>         0.0803
     19 O2        -12.1725   -1.5439   -2.1125 O.3       1 <0>        -0.1802
     20 C17        -6.8253   -0.1313   -3.0409 C.3       1 <0>         0.1791
     21 C18        -6.6515    1.3849   -3.1654 C.3       1 <0>        -0.1348
     22 C19        -5.1725    1.7071   -3.3910 C.3       1 <0>         0.0015
     23 C20        -4.4953   -0.2633   -2.1536 C.3       1 <0>        -0.0015
     24 C21        -5.9540   -0.6443   -1.8910 C.3       1 <0>        -0.1716
     25 C22        -2.9760    1.6081   -2.3781 C.3       1 <0>        -0.0004
     26 C23        -2.2407    1.2775   -1.0777 C.3       1 <0>        -0.1179
     27 H1         -2.3707    0.2222   -0.8378 H         1 <0>         0.0969
     28 C24        -0.7473    1.5900   -1.2361 C.3       1 <0>        -0.1117
     29 C25        -0.0127    1.0858    0.0080 C.3       1 <0>        -0.0978
     30 C26        -0.7096    1.5670    1.2469 C.2       1 <0>        -0.1388
     31 C27        -1.9191    2.0198    1.2720 C.2       1 <0>        -0.1708
     32 C28        -2.7968    2.1361    0.0603 C.3       1 <0>        -0.0966
     33 O3         -6.4265   -0.7595   -4.2609 O.3       1 <0>        -0.5477
     34 O4        -19.7703   -1.0564   -2.1172 O.3       1 <0>        -0.3065
     35 C29       -20.8093   -1.0691   -1.1205 C.3       1 <0>         0.2123
     36 O5        -20.1128   -1.3997    0.0956 O.3       1 <0>        -0.3062
     37 H2        -16.4670   -4.2415    0.3184 H         1 <0>         0.1421
     38 H3        -18.3346   -3.1234    1.4677 H         1 <0>         0.1411
     39 H4        -17.5892   -2.3763   -3.3489 H         1 <0>         0.1387
     40 H5        -16.0267   -4.2318   -3.3231 H         1 <0>         0.0881
     41 H6        -15.5562   -5.0067   -1.7913 H         1 <0>         0.0905
     42 H7        -14.6197   -2.3423   -1.7653 H         1 <0>         0.4098
     43 H8        -10.7489   -3.9588   -3.7736 H         1 <0>         0.1760
     44 H9         -8.1881   -2.3351   -3.7379 H         1 <0>         0.1318
     45 H10        -8.6180    1.3824   -1.7128 H         1 <0>         0.1383
     46 H11       -10.9766    0.8983   -1.2436 H         1 <0>         0.1428
     47 H12        -6.9933    1.8668   -2.2495 H         1 <0>         0.1036
     48 H13        -7.2364    1.7501   -4.0096 H         1 <0>         0.1244
     49 H14        -5.0433    2.7868   -3.4658 H         1 <0>         0.1310
     50 H15        -4.8350    1.2362   -4.3143 H         1 <0>         0.1401
     51 H16        -4.1609   -0.7249   -3.0827 H         1 <0>         0.1373
     52 H17        -3.8742   -0.6147   -1.3296 H         1 <0>         0.1304
     53 H18        -6.2849   -0.1943   -0.9550 H         1 <0>         0.1001
     54 H19        -6.0406   -1.7288   -1.8247 H         1 <0>         0.1168
     55 H20        -2.9253    2.6813   -2.5614 H         1 <0>         0.1311
     56 H21        -2.5076    1.0756   -3.2058 H         1 <0>         0.1342
     57 H22        -0.6065    2.6664   -1.3337 H         1 <0>         0.0779
     58 H23        -0.3591    1.0850   -2.1206 H         1 <0>         0.0785
     59 H24         0.0021   -0.0041    0.0020 H         1 <0>         0.0812
     60 H25         1.0106    1.4611    0.0003 H         1 <0>         0.0860
     61 H26        -0.1658    1.5332    2.1794 H         1 <0>         0.1116
     62 H27        -2.3244    2.3330    2.2228 H         1 <0>         0.1125
     63 H28        -2.8359    3.1776   -0.2589 H         1 <0>         0.0859
     64 H29        -3.8029    1.7986    0.3091 H         1 <0>         0.0669
     65 H30        -6.5105   -1.7228   -4.2530 H         1 <0>         0.3907
     66 H31       -21.5546   -1.8294   -1.3538 H         1 <0>         0.0893
     67 H32       -21.2771   -0.0879   -1.0392 H         1 <0>         0.1363
     68 N2         -4.3917    1.2089   -2.2386 N.4       1 <0>        -0.3952
     69 H33        -4.7705    1.6196   -1.3771 H         1 <0>         0.4221
@<TRIPOS>BOND
     1    1    6 ar
     2    1    2 ar
     3    1   37 1
     4    2    3 ar
     5    2   38 1
     6    3   36 1
     7    3    4 ar
     8    4    5 ar
     9    4   34 1
    10    5    6 ar
    11    5   39 1
    12    6    7 1
    13    7    8 1
    14    7   40 1
    15    7   41 1
    16    8    9 am
    17    8   42 1
    18    9   10 2
    19    9   11 1
    20   11   19 1
    21   11   12 2
    22   12   13 1
    23   12   43 1
    24   13   18 ar
    25   13   14 ar
    26   14   15 ar
    27   14   44 1
    28   15   16 ar
    29   15   20 1
    30   16   17 ar
    31   16   45 1
    32   17   18 ar
    33   17   46 1
    34   18   19 1
    35   20   24 1
    36   20   21 1
    37   20   33 1
    38   21   22 1
    39   21   47 1
    40   21   48 1
    41   22   49 1
    42   22   50 1
    43   22   68 1
    44   23   24 1
    45   23   51 1
    46   23   52 1
    47   23   68 1
    48   24   53 1
    49   24   54 1
    50   25   26 1
    51   25   55 1
    52   25   56 1
    53   25   68 1
    54   26   27 1
    55   26   32 1
    56   26   28 1
    57   28   29 1
    58   28   57 1
    59   28   58 1
    60   29   30 1
    61   29   59 1
    62   29   60 1
    63   30   31 2
    64   30   61 1
    65   31   32 1
    66   31   62 1
    67   32   63 1
    68   32   64 1
    69   33   65 1
    70   34   35 1
    71   35   36 1
    72   35   66 1
    73   35   67 1
    74   68   69 1
@<TRIPOS>MOLECULE
ZINC32916138
   72    75     0     0     0
SMALL
USER_CHARGES
(3S)-N-[2-[[cyclohexyl(methyl)amino]methyl]phenyl]-1-[(3,5-dimethyl-1H-pyrazol-4-yl)sulfonyl]piperidine-3-carboxamide
@<TRIPOS>ATOM
      1 C1          5.3277   10.9816   -1.2786 C.3       1 <0>        -0.1430
      2 C2          4.0417   11.1577   -2.0442 C.2       1 <0>         0.2080
      3 C3          2.8503   10.5910   -1.7435 C.2       1 <0>        -0.8278
      4 C4          1.9193   11.0144   -2.6977 C.2       1 <0>         0.1605
      5 N1          2.5311   11.8028   -3.5438 N.2       1 <0>        -0.2741
      6 N2          3.8727   11.9061   -3.1543 N.pl3     1 <0>        -0.4687
      7 H1          4.7241   12.4559   -3.5819 H         1 <0>         0.4753
      8 C5          0.4630   10.6295   -2.7429 C.3       1 <0>        -0.0976
      9 S1          2.5270    9.5156   -0.3857 S.o2      1 <0>         2.7226
     10 O1          1.1364    9.6153   -0.1108 O.2       1 <0>        -0.9521
     11 O2          3.5188    9.7896    0.5944 O.2       1 <0>        -0.9566
     12 N3          2.7958    7.9685   -0.9115 N.pl3     1 <0>        -0.9999
     13 C6          4.1266    7.3576   -0.7913 C.3       1 <0>         0.1091
     14 C7          3.9911    6.0216   -0.0540 C.3       1 <0>        -0.1315
     15 C8          2.9613    5.1482   -0.7743 C.3       1 <0>        -0.1068
     16 C9          1.5997    5.8469   -0.7623 C.3       1 <0>        -0.1189
     17 H2          1.2756    6.0198    0.2746 H         1 <0>         0.1136
     18 C10         1.7081    7.1809   -1.5076 C.3       1 <0>         0.1337
     19 C11         0.5793    4.9717   -1.4434 C.2       1 <0>         0.5270
     20 O3         -0.0064    5.3750   -2.4259 O.2       1 <0>        -0.4929
     21 N4          0.3175    3.7409   -0.9607 N.am      1 <0>        -0.6954
     22 C12        -0.5594    2.8926   -1.6458 C.ar      1 <0>         0.1731
     23 C13        -1.6563    3.4194   -2.3155 C.ar      1 <0>        -0.1179
     24 C14        -2.5235    2.5789   -2.9851 C.ar      1 <0>        -0.0647
     25 C15        -2.2972    1.2146   -2.9949 C.ar      1 <0>        -0.1279
     26 C16        -1.2026    0.6877   -2.3348 C.ar      1 <0>        -0.0728
     27 C17        -0.3318    1.5230   -1.6623 C.ar      1 <0>        -0.1857
     28 C18         0.8605    0.9477   -0.9422 C.3       1 <0>         0.0437
     29 N5          0.5650    0.8497    0.4934 N.4       1 <0>        -0.4014
     30 C19        -0.5012   -0.1288    0.7458 C.3       1 <0>        -0.0579
     31 C20         1.7747    0.5192    1.2585 C.3       1 <0>         0.0295
     32 C21         2.2595   -0.8783    0.8675 C.3       1 <0>        -0.1401
     33 C22         3.5194   -1.2225    1.6644 C.3       1 <0>        -0.1187
     34 C23         3.2005   -1.1934    3.1605 C.3       1 <0>        -0.1322
     35 C24         2.7156    0.2040    3.5515 C.3       1 <0>        -0.1179
     36 C25         1.4557    0.5483    2.7546 C.3       1 <0>        -0.1419
     37 H3          5.1553   10.3151   -0.4207 H         1 <0>         0.1187
     38 H4          5.6768   11.9605   -0.9181 H         1 <0>         0.0977
     39 H5          6.0896   10.5407   -1.9382 H         1 <0>         0.0919
     40 H6         -0.0180   11.1151   -3.6048 H         1 <0>         0.0838
     41 H7         -0.0312   10.9550   -1.8157 H         1 <0>         0.1021
     42 H8          0.3753    9.5374   -2.8413 H         1 <0>         0.0833
     43 H9          4.5447    7.1891   -1.7947 H         1 <0>         0.0734
     44 H10         4.7890    8.0299   -0.2263 H         1 <0>         0.1008
     45 H11         4.9644    5.5091   -0.0419 H         1 <0>         0.0867
     46 H12         3.6603    6.2047    0.9790 H         1 <0>         0.0764
     47 H13         3.2808    4.9868   -1.8144 H         1 <0>         0.0777
     48 H14         2.8798    4.1786   -0.2612 H         1 <0>         0.0619
     49 H15         0.7624    7.7357   -1.4188 H         1 <0>         0.1068
     50 H16         1.9274    6.9979   -2.5699 H         1 <0>         0.0833
     51 H17         0.7932    3.4032   -0.0281 H         1 <0>         0.4116
     52 H18        -1.8336    4.4847   -2.3082 H         1 <0>         0.1512
     53 H19        -3.3793    2.9875   -3.5020 H         1 <0>         0.1392
     54 H20        -2.9767    0.5594   -3.5196 H         1 <0>         0.1370
     55 H21        -1.0283   -0.3781   -2.3446 H         1 <0>         0.1345
     56 H22         1.0812   -0.0537   -1.3404 H         1 <0>         0.1397
     57 H23         1.7313    1.6025   -1.0935 H         1 <0>         0.1329
     58 H24        -0.7018   -0.1820    1.8260 H         1 <0>         0.1267
     59 H25        -0.1848   -1.1177    0.3825 H         1 <0>         0.1236
     60 H26        -1.4153    0.1806    0.2178 H         1 <0>         0.1259
     61 H27         2.5347    1.2749    1.0110 H         1 <0>         0.1340
     62 H28         1.4729   -1.6146    1.0891 H         1 <0>         0.0887
     63 H29         2.4888   -0.8993   -0.2081 H         1 <0>         0.0852
     64 H30         3.8680   -2.2272    1.3833 H         1 <0>         0.0842
     65 H31         4.3060   -0.4862    1.4428 H         1 <0>         0.0743
     66 H32         2.4140   -1.9298    3.3821 H         1 <0>         0.0698
     67 H33         4.1064   -1.4408    3.7334 H         1 <0>         0.0797
     68 H34         2.4862    0.2249    4.6271 H         1 <0>         0.0855
     69 H35         3.5022    0.9404    3.3300 H         1 <0>         0.0752
     70 H36         1.1072    1.5530    3.0357 H         1 <0>         0.0871
     71 H37         0.6691   -0.1880    2.9762 H         1 <0>         0.0897
     72 H38         0.2084    1.8333    0.8330 H         1 <0>         0.4281
@<TRIPOS>BOND
     1    1    2 1
     2    1   37 1
     3    1   38 1
     4    1   39 1
     5    2    6 1
     6    2    3 2
     7    3    4 1
     8    3    9 1
     9    4    5 2
    10    4    8 1
    11    5    6 1
    12    6    7 1
    13    8   40 1
    14    8   41 1
    15    8   42 1
    16    9   10 2
    17    9   11 2
    18    9   12 1
    19   12   18 1
    20   12   13 1
    21   13   14 1
    22   13   43 1
    23   13   44 1
    24   14   15 1
    25   14   45 1
    26   14   46 1
    27   15   16 1
    28   15   47 1
    29   15   48 1
    30   16   17 1
    31   16   18 1
    32   16   19 1
    33   18   49 1
    34   18   50 1
    35   19   20 2
    36   19   21 am
    37   21   22 1
    38   21   51 1
    39   22   27 ar
    40   22   23 ar
    41   23   24 ar
    42   23   52 1
    43   24   25 ar
    44   24   53 1
    45   25   26 ar
    46   25   54 1
    47   26   27 ar
    48   26   55 1
    49   27   28 1
    50   28   29 1
    51   28   56 1
    52   28   57 1
    53   29   30 1
    54   29   31 1
    55   29   72 1
    56   30   58 1
    57   30   59 1
    58   30   60 1
    59   31   36 1
    60   31   32 1
    61   31   61 1
    62   32   33 1
    63   32   62 1
    64   32   63 1
    65   33   34 1
    66   33   64 1
    67   33   65 1
    68   34   35 1
    69   34   66 1
    70   34   67 1
    71   35   36 1
    72   35   68 1
    73   35   69 1
    74   36   70 1
    75   36   71 1
@<TRIPOS>MOLECULE
ZINC39637431
   71    74     0     0     0
SMALL
USER_CHARGES

@<TRIPOS>ATOM
      1 C1         -4.3240    1.7045    1.3122 C.3       1 <0>        -0.1764
      2 C2         -2.9155    1.6163    0.7214 C.3       1 <0>         0.1168
      3 N1         -2.6093    0.2212    0.3952 N.pl3     1 <0>        -0.2621
      4 C3         -2.1115   -0.7019    1.2721 C.2       1 <0>        -0.0017
      5 C4         -1.9729   -1.8795    0.5562 C.2       1 <0>        -0.1606
      6 C5         -2.4079   -1.5788   -0.7377 C.2       1 <0>         0.0728
      7 N2         -2.7727   -0.3225   -0.7568 N.2       1 <0>        -0.2635
      8 C6         -2.4536   -2.5338   -1.9026 C.3       1 <0>        -0.0788
      9 Br1        -1.3313   -3.5402    1.1935 Br        1 <0>         0.0120
     10 C7         -1.7878   -0.4875    2.6906 C.2       1 <0>         0.6232
     11 O1         -2.5749   -0.8297    3.5525 O.2       1 <0>        -0.4951
     12 N3         -0.6190    0.0882    3.0355 N.am      1 <0>        -0.6135
     13 C8          0.4999    0.4764    2.1448 C.3       1 <0>         0.1108
     14 C9          0.9984    1.8255    2.7096 C.3       1 <0>        -0.1146
     15 H1          0.5305    2.6550    2.1795 H         1 <0>         0.1112
     16 C10         0.5626    1.8185    4.1844 C.3       1 <0>        -0.0732
     17 C11        -0.1650    0.4820    4.3909 C.3       1 <0>         0.1098
     18 C12         1.7826    1.9035    5.0965 C.3       1 <0>        -0.1479
     19 C13         1.3207    1.9537    6.5556 C.3       1 <0>        -0.0086
     20 N4          0.4527    3.1202    6.7564 N.4       1 <0>        -0.5044
     21 C14        -0.7628    2.9854    5.9445 C.3       1 <0>        -0.0117
     22 C15        -0.3891    2.9789    4.4595 C.3       1 <0>        -0.1352
     23 C16         2.4990    1.9162    2.6039 C.2       1 <0>         0.5210
     24 O2          3.1683    0.9050    2.5927 O.2       1 <0>        -0.5157
     25 N5          3.0971    3.1212    2.5218 N.am      1 <0>        -0.7224
     26 C17         4.5429    3.2079    2.3020 C.3       1 <0>         0.1467
     27 H2          5.0386    2.3846    2.8164 H         1 <0>         0.0980
     28 C18         4.8368    3.1233    0.8029 C.3       1 <0>        -0.1297
     29 C19         6.3468    3.2138    0.5733 C.3       1 <0>        -0.1210
     30 C20         6.8671    4.5444    1.1207 C.3       1 <0>        -0.1200
     31 C21         6.5731    4.6290    2.6199 C.3       1 <0>        -0.0831
     32 H3          6.9438    5.5770    3.0099 H         1 <0>         0.0772
     33 C22         5.0632    4.5385    2.8494 C.3       1 <0>        -0.0928
     34 H4          4.5675    5.3617    2.3350 H         1 <0>         0.0762
     35 C23         4.7692    4.6231    4.3485 C.3       1 <0>        -0.1479
     36 C24         7.2689    3.4734    3.3420 C.3       1 <0>        -0.1577
     37 H5         -4.5188    2.7269    1.6360 H         1 <0>         0.0860
     38 H6         -5.0541    1.4178    0.5554 H         1 <0>         0.0759
     39 H7         -4.4026    1.0318    2.1662 H         1 <0>         0.0674
     40 H8         -2.8626    2.2211   -0.1838 H         1 <0>         0.1145
     41 H9         -2.1927    1.9864    1.4485 H         1 <0>         0.0894
     42 H10        -3.4218   -3.0341   -1.9244 H         1 <0>         0.0849
     43 H11        -2.3090   -1.9815   -2.8311 H         1 <0>         0.0823
     44 H12        -1.6632   -3.2766   -1.7947 H         1 <0>         0.0841
     45 H13         1.2940   -0.2691    2.1851 H         1 <0>         0.1082
     46 H14         0.1456    0.6005    1.1215 H         1 <0>         0.0882
     47 H15        -1.0193    0.6134    5.0550 H         1 <0>         0.0926
     48 H16         0.5203   -0.2635    4.7941 H         1 <0>         0.0911
     49 H17         2.4126    1.0272    4.9441 H         1 <0>         0.1275
     50 H18         2.3493    2.8048    4.8630 H         1 <0>         0.0997
     51 H19         0.7680    1.0447    6.7929 H         1 <0>         0.1345
     52 H20         2.1897    2.0310    7.2090 H         1 <0>         0.1406
     53 H21         0.1992    3.1854    7.7309 H         1 <0>         0.4353
     54 H22        -1.2660    2.0518    6.1963 H         1 <0>         0.1348
     55 H23        -1.4298    3.8232    6.1475 H         1 <0>         0.1409
     56 H24         0.0997    3.9189    4.2032 H         1 <0>         0.0983
     57 H25        -1.2903    2.8609    3.8579 H         1 <0>         0.1158
     58 H26         2.5703    3.9311    2.6083 H         1 <0>         0.3970
     59 H27         4.4662    2.1753    0.4129 H         1 <0>         0.0668
     60 H28         4.3411    3.9465    0.2884 H         1 <0>         0.0645
     61 H29         6.8425    2.3906    1.0878 H         1 <0>         0.0692
     62 H30         6.5562    3.1535   -0.4947 H         1 <0>         0.0687
     63 H31         7.9428    4.6089    0.9572 H         1 <0>         0.0693
     64 H32         6.3713    5.3676    0.6063 H         1 <0>         0.0641
     65 H33         5.2649    3.7998    4.8630 H         1 <0>         0.0618
     66 H34         5.1399    5.5710    4.7386 H         1 <0>         0.0616
     67 H35         3.6935    4.5586    4.5121 H         1 <0>         0.0429
     68 H36         8.3447    3.5379    3.1784 H         1 <0>         0.0599
     69 H37         7.0595    3.5337    4.4100 H         1 <0>         0.0559
     70 H38         6.8983    2.5255    2.9520 H         1 <0>         0.0610
     71 H39         0.9469    3.9565    6.4834 H         1 <0>         0.4275
@<TRIPOS>BOND
     1    1    2 1
     2    1   37 1
     3    1   38 1
     4    1   39 1
     5    2    3 1
     6    2   40 1
     7    2   41 1
     8    3    7 1
     9    3    4 1
    10    4    5 2
    11    4   10 1
    12    5    6 1
    13    5    9 1
    14    6    7 2
    15    6    8 1
    16    8   42 1
    17    8   43 1
    18    8   44 1
    19   10   11 2
    20   10   12 am
    21   12   17 1
    22   12   13 1
    23   13   14 1
    24   13   45 1
    25   13   46 1
    26   14   15 1
    27   14   16 1
    28   14   23 1
    29   16   22 1
    30   16   17 1
    31   16   18 1
    32   17   47 1
    33   17   48 1
    34   18   19 1
    35   18   49 1
    36   18   50 1
    37   19   20 1
    38   19   51 1
    39   19   52 1
    40   20   21 1
    41   20   53 1
    42   20   71 1
    43   21   22 1
    44   21   54 1
    45   21   55 1
    46   22   56 1
    47   22   57 1
    48   23   24 2
    49   23   25 am
    50   25   26 1
    51   25   58 1
    52   26   27 1
    53   26   33 1
    54   26   28 1
    55   28   29 1
    56   28   59 1
    57   28   60 1
    58   29   30 1
    59   29   61 1
    60   29   62 1
    61   30   31 1
    62   30   63 1
    63   30   64 1
    64   31   32 1
    65   31   33 1
    66   31   36 1
    67   33   34 1
    68   33   35 1
    69   35   65 1
    70   35   66 1
    71   35   67 1
    72   36   68 1
    73   36   69 1
    74   36   70 1
@<TRIPOS>MOLECULE
ZINC39923315
   63    67     0     0     0
SMALL
USER_CHARGES

@<TRIPOS>ATOM
      1 C1         -0.0544    1.5130    0.0806 C.3       1 <0>        -0.1189
      2 C2         -0.0269    0.0065    0.0558 C.ar      1 <0>        -0.0784
      3 C3         -1.0655   -0.7118    0.6196 C.ar      1 <0>        -0.1072
      4 C4         -1.0432   -2.0925    0.5991 C.ar      1 <0>        -0.1112
      5 C5          0.0239   -2.7597    0.0107 C.ar      1 <0>         0.1577
      6 C6          1.0653   -2.0349   -0.5552 C.ar      1 <0>        -0.1073
      7 C7          1.0341   -0.6545   -0.5357 C.ar      1 <0>        -0.1072
      8 N1          0.0498   -4.1566   -0.0115 N.pl3     1 <0>        -0.5743
      9 C8          0.1715   -5.0535    1.1503 C.3       1 <0>         0.4211
     10 H1         -0.6703   -4.9165    1.8290 H         1 <0>         0.0803
     11 N2          0.1453   -6.4030    0.5600 N.pl3     1 <0>        -0.6507
     12 N3          0.0179   -6.2216   -0.8225 N.2       1 <0>        -0.3016
     13 C9         -0.0400   -4.9704   -1.1318 C.2       1 <0>         0.2551
     14 S1         -0.2078   -4.3674   -2.7789 S.3       1 <0>         0.0819
     15 C10        -0.2739   -5.8707   -3.7920 C.3       1 <0>        -0.1532
     16 C11        -0.4187   -5.4924   -5.2435 C.2       1 <0>         0.5543
     17 O1         -0.4721   -4.3239   -5.5631 O.2       1 <0>        -0.4549
     18 N4         -0.4889   -6.4527   -6.1865 N.am      1 <0>        -0.5528
     19 N5         -0.6236   -6.1010   -7.5359 N.2       1 <0>        -0.1259
     20 C12        -0.6918   -7.0339   -8.4520 C.2       1 <0>         0.0355
     21 C13        -0.8266   -6.6818   -9.8026 C.2       1 <0>         0.1300
     22 C14        -0.9182   -7.5442  -10.8924 C.ar      1 <0>        -0.1468
     23 C15        -0.9071   -8.9527  -10.9988 C.ar      1 <0>        -0.0247
     24 C16        -1.0150   -9.5362  -12.2188 C.ar      1 <0>        -0.1406
     25 C17        -1.1382   -8.7767  -13.3861 C.ar      1 <0>         0.0411
     26 C18        -1.1562   -7.4226  -13.3600 C.ar      1 <0>        -0.1998
     27 C19        -1.0479   -6.7389  -12.1196 C.ar      1 <0>         0.3142
     28 N6         -1.0393   -5.4548  -11.8306 N.pl3     1 <0>        -0.5887
     29 C20        -0.9093   -5.2860  -10.3800 C.3       1 <0>         0.0703
     30 C21         1.4737   -4.8131    1.8698 C.ar      1 <0>        -0.1659
     31 C22         1.4710   -4.5096    3.2187 C.ar      1 <0>        -0.0564
     32 C23         2.6632   -4.2883    3.8805 C.ar      1 <0>        -0.1526
     33 C24         3.8640   -4.3713    3.1905 C.ar      1 <0>         0.1412
     34 C25         3.8640   -4.6764    1.8372 C.ar      1 <0>        -0.2127
     35 C26         2.6693   -4.9019    1.1811 C.ar      1 <0>        -0.0384
     36 O2          5.0382   -4.1536    3.8392 O.3       1 <0>        -0.3150
     37 C27         6.2353   -4.2557    3.0656 C.3       1 <0>         0.0264
     38 H2         -0.5588    1.8820   -0.8125 H         1 <0>         0.0736
     39 H3         -0.5907    1.8521    0.9669 H         1 <0>         0.0692
     40 H4          0.9662    1.8947    0.1053 H         1 <0>         0.0685
     41 H5         -1.8947   -0.1925    1.0769 H         1 <0>         0.1289
     42 H6         -1.8543   -2.6528    1.0402 H         1 <0>         0.1247
     43 H7          1.8965   -2.5505   -1.0131 H         1 <0>         0.1231
     44 H8          1.8414   -0.0904   -0.9790 H         1 <0>         0.1276
     45 H9          0.2048   -7.2473    1.0338 H         1 <0>         0.4476
     46 H10         0.6445   -6.4417   -3.6552 H         1 <0>         0.1356
     47 H11        -1.1272   -6.4768   -3.4876 H         1 <0>         0.1363
     48 H12        -0.4463   -7.3875   -5.9309 H         1 <0>         0.4095
     49 H13        -0.6443   -8.0747   -8.1674 H         1 <0>         0.1607
     50 H14        -0.8127   -9.5626  -10.1125 H         1 <0>         0.1566
     51 H15        -1.0051  -10.6138  -12.2901 H         1 <0>         0.1562
     52 H16        -1.2210   -9.2842  -14.3358 H         1 <0>         0.1608
     53 H17        -1.2530   -6.8644  -14.2794 H         1 <0>         0.1608
     54 H18        -1.7801   -4.7659   -9.9809 H         1 <0>         0.1788
     55 H19        -0.0008   -4.7299  -10.1491 H         1 <0>         0.1779
     56 H20         0.5360   -4.4451    3.7554 H         1 <0>         0.1308
     57 H21         2.6606   -4.0506    4.9340 H         1 <0>         0.1346
     58 H22         4.7974   -4.7415    1.2979 H         1 <0>         0.1279
     59 H23         2.6691   -5.1438    0.1286 H         1 <0>         0.1152
     60 H24         6.3133   -5.2593    2.6476 H         1 <0>         0.0560
     61 H25         6.2082   -3.5261    2.2562 H         1 <0>         0.0563
     62 H26         7.0976   -4.0595    3.7029 H         1 <0>         0.1037
     63 H27        -1.1115   -4.7337  -12.4754 H         1 <0>         0.4550
@<TRIPOS>BOND
     1    1    2 1
     2    1   38 1
     3    1   39 1
     4    1   40 1
     5    2    7 ar
     6    2    3 ar
     7    3    4 ar
     8    3   41 1
     9    4    5 ar
    10    4   42 1
    11    5    6 ar
    12    5    8 1
    13    6    7 ar
    14    6   43 1
    15    7   44 1
    16    8   13 1
    17    8    9 1
    18    9   10 1
    19    9   11 1
    20    9   30 1
    21   11   12 1
    22   11   45 1
    23   12   13 2
    24   13   14 1
    25   14   15 1
    26   15   16 1
    27   15   46 1
    28   15   47 1
    29   16   17 2
    30   16   18 am
    31   18   19 1
    32   18   48 1
    33   19   20 2
    34   20   21 1
    35   20   49 1
    36   21   29 1
    37   21   22 2
    38   22   27 ar
    39   22   23 ar
    40   23   24 ar
    41   23   50 1
    42   24   25 ar
    43   24   51 1
    44   25   26 ar
    45   25   52 1
    46   26   27 ar
    47   26   53 1
    48   27   28 2
    49   28   29 1
    50   28   63 1
    51   29   54 1
    52   29   55 1
    53   30   35 ar
    54   30   31 ar
    55   31   32 ar
    56   31   56 1
    57   32   33 ar
    58   32   57 1
    59   33   34 ar
    60   33   36 1
    61   34   35 ar
    62   34   58 1
    63   35   59 1
    64   36   37 1
    65   37   60 1
    66   37   61 1
    67   37   62 1
@<TRIPOS>MOLECULE
ZINC63743230
   68    73     0     0     0
SMALL
USER_CHARGES

@<TRIPOS>ATOM
      1 C1          0.7147    1.0798    0.0720 C.3       1 <0>        -0.1284
      2 C2          0.5202   -0.4145    0.0519 C.ar      1 <0>        -0.1092
      3 C3          0.4377   -1.0755   -1.1813 C.ar      1 <0>         0.0573
      4 C4          0.2642   -2.4103   -1.2831 C.ar      1 <0>        -0.2056
      5 C5          0.1559   -3.2123   -0.1136 C.ar      1 <0>         0.3270
      6 N1         -0.0134   -4.5022    0.0477 N.pl3     1 <0>        -0.5834
      7 C6         -0.0559   -4.7923    1.4852 C.3       1 <0>         0.0611
      8 C7          0.1160   -3.4612    2.1822 C.2       1 <0>         0.0644
      9 C8          0.2400   -2.5379    1.2015 C.ar      1 <0>        -0.1590
     10 C9          0.4353   -1.0834    1.2243 C.ar      1 <0>        -0.0264
     11 C10         0.1429   -3.2134    3.6685 C.3       1 <0>        -0.1039
     12 C11        -1.2890   -3.0663    4.1870 C.3       1 <0>         0.1252
     13 N2         -1.2628   -2.8255    5.6318 N.am      1 <0>        -0.7368
     14 C12        -2.4168   -2.6635    6.3090 C.2       1 <0>         0.5258
     15 O1         -3.4769   -2.7170    5.7223 O.2       1 <0>        -0.5231
     16 C13        -2.3898   -2.4157    7.7953 C.3       1 <0>        -0.1123
     17 C14        -1.7188   -3.5985    8.4991 C.3       1 <0>        -0.1002
     18 C15        -1.7490   -3.3694   10.0119 C.3       1 <0>         0.0274
     19 N3         -3.1409   -3.2355   10.4604 N.3       1 <0>        -0.5013
     20 C16        -3.7915   -2.0778    9.8336 C.3       1 <0>         0.0523
     21 C17        -3.8224   -2.2683    8.3155 C.3       1 <0>        -0.0968
     22 C18        -3.2164   -3.1528   11.9251 C.3       1 <0>         0.2867
     23 H1         -4.2433   -3.0131   12.2628 H         1 <0>         0.1677
     24 N4         -2.3158   -2.0991   12.4610 N.3       1 <0>        -0.4814
     25 N5         -1.7288   -2.3935   13.6596 N.am      1 <0>        -0.3895
     26 C19        -1.2378   -1.4740   14.5423 C.2       1 <0>         0.5389
     27 O2         -1.3539   -0.2833   14.3027 O.2       1 <0>        -0.5075
     28 C20        -0.6003   -1.8882   15.7247 C.2       1 <0>        -0.2236
     29 C21        -0.4889   -3.2151   15.9911 C.2       1 <0>         0.1911
     30 N6         -0.9987   -4.0932   15.1191 N.2       1 <0>        -0.4845
     31 C22        -1.6013   -3.7080   14.0269 C.2       1 <0>         0.3578
     32 S1         -2.4293   -4.6144   12.7297 S.3       1 <0>        -0.0452
     33 C23         0.1737   -3.7504   17.2313 C.3       1 <0>        -0.0714
     34 C24         1.0372   -2.6738   17.8866 C.3       1 <0>        -0.1208
     35 C25         0.1905   -1.4045   18.0400 C.3       1 <0>        -0.1229
     36 C26        -0.0650   -0.8264   16.6493 C.3       1 <0>        -0.0527
     37 H2          1.7807    1.3074    0.0750 H         1 <0>         0.0876
     38 H3          0.2520    1.5183   -0.8121 H         1 <0>         0.0825
     39 H4          0.2522    1.4944    0.9677 H         1 <0>         0.0811
     40 H5          0.5158   -0.4929   -2.0874 H         1 <0>         0.1614
     41 H6          0.2069   -2.8717   -2.2580 H         1 <0>         0.1624
     42 H7         -1.0162   -5.2343    1.7510 H         1 <0>         0.1746
     43 H8          0.7566   -5.4663    1.7567 H         1 <0>         0.1748
     44 H9          0.5062   -0.5546    2.1633 H         1 <0>         0.1593
     45 H10         0.6258   -4.0533    4.1681 H         1 <0>         0.1184
     46 H11         0.6997   -2.2993    3.8744 H         1 <0>         0.1151
     47 H12        -1.7718   -2.2265    3.6874 H         1 <0>         0.0787
     48 H13        -1.8457   -3.9805    3.9810 H         1 <0>         0.0782
     49 H14        -0.4150   -2.7826    6.1011 H         1 <0>         0.4056
     50 H15        -1.8313   -1.5029    8.0023 H         1 <0>         0.1020
     51 H16        -2.2552   -4.5166    8.2593 H         1 <0>         0.0867
     52 H17        -0.6849   -3.6823    8.1642 H         1 <0>         0.0791
     53 H18        -1.2847   -4.2166   10.5168 H         1 <0>         0.1026
     54 H19        -1.2007   -2.4586   10.2523 H         1 <0>         0.0450
     55 H20        -4.8108   -1.9868   10.2090 H         1 <0>         0.0985
     56 H21        -3.2337   -1.1730   10.0749 H         1 <0>         0.0556
     57 H22        -4.2914   -1.4017    7.8494 H         1 <0>         0.0863
     58 H23        -4.3918   -3.1654    8.0728 H         1 <0>         0.0873
     59 H24        -1.6250   -1.8312   11.7761 H         1 <0>         0.3668
     60 H25        -0.5917   -4.0755   17.9360 H         1 <0>         0.0979
     61 H26         0.8008   -4.6013   16.9650 H         1 <0>         0.0951
     62 H27         1.3685   -3.0152   18.8674 H         1 <0>         0.0819
     63 H28         1.9029   -2.4643   17.2583 H         1 <0>         0.0704
     64 H29        -0.7587   -1.6514   18.5155 H         1 <0>         0.0701
     65 H30         0.7275   -0.6760   18.6475 H         1 <0>         0.0788
     66 H31         0.8687   -0.4354   16.2451 H         1 <0>         0.0796
     67 H32        -0.7905   -0.0164   16.7246 H         1 <0>         0.0836
     68 H33        -0.0969   -5.1556   -0.6644 H         1 <0>         0.4564
@<TRIPOS>BOND
     1    1    2 1
     2    1   37 1
     3    1   38 1
     4    1   39 1
     5    2   10 ar
     6    2    3 ar
     7    3    4 ar
     8    3   40 1
     9    4    5 ar
    10    4   41 1
    11    5    9 ar
    12    5    6 2
    13    6    7 1
    14    6   68 1
    15    7    8 1
    16    7   42 1
    17    7   43 1
    18    8    9 2
    19    8   11 1
    20    9   10 ar
    21   10   44 1
    22   11   12 1
    23   11   45 1
    24   11   46 1
    25   12   13 1
    26   12   47 1
    27   12   48 1
    28   13   14 am
    29   13   49 1
    30   14   15 2
    31   14   16 1
    32   16   21 1
    33   16   17 1
    34   16   50 1
    35   17   18 1
    36   17   51 1
    37   17   52 1
    38   18   19 1
    39   18   53 1
    40   18   54 1
    41   19   20 1
    42   19   22 1
    43   20   21 1
    44   20   55 1
    45   20   56 1
    46   21   57 1
    47   21   58 1
    48   22   23 1
    49   22   32 1
    50   22   24 1
    51   24   25 1
    52   24   59 1
    53   25   31 1
    54   25   26 am
    55   26   27 2
    56   26   28 1
    57   28   36 1
    58   28   29 2
    59   29   30 1
    60   29   33 1
    61   30   31 2
    62   31   32 1
    63   33   34 1
    64   33   60 1
    65   33   61 1
    66   34   35 1
    67   34   62 1
    68   34   63 1
    69   35   36 1
    70   35   64 1
    71   35   65 1
    72   36   66 1
    73   36   67 1
@<TRIPOS>MOLECULE
ZINC03341259
   46    49     0     0     0
SMALL
USER_CHARGES
[3-cyano-3-(1,3-dihydrobenzoimidazol-2-ylidene)-2-oxo-propyl] 2-(9-oxo-7-thia-10-azabicyclo[4.4.0]deca-2,4,11-trien-8-yl)acetate
@<TRIPOS>ATOM
      1 C1         -1.8172   -6.6494   -0.0163 C.ar      1 <0>        -0.0983
      2 C2         -0.4324   -6.6306   -0.0298 C.ar      1 <0>        -0.0975
      3 C3          0.2476   -5.4295   -0.0303 C.ar      1 <0>        -0.0941
      4 C4         -0.4590   -4.2348   -0.0163 C.ar      1 <0>         0.0793
      5 C5         -1.8555   -4.2538   -0.0031 C.ar      1 <0>         0.0770
      6 C6         -2.5296   -5.4673   -0.0031 C.ar      1 <0>        -0.0961
      7 N1         -2.2824   -2.9308    0.0081 N.pl3     1 <0>        -0.5982
      8 C7         -1.1860   -2.1294    0.0019 C.2       1 <0>         0.5368
      9 C8         -1.2050   -0.7231    0.0097 C.2       1 <0>        -0.3541
     10 C9         -2.4547   -0.0240    0.0254 C.1       1 <0>         0.2708
     11 N2         -3.4461    0.5305    0.0378 N.1       1 <0>        -0.4422
     12 C10         0.0021   -0.0041    0.0020 C.2       1 <0>         0.4352
     13 O1          1.0629   -0.5975   -0.0113 O.2       1 <0>        -0.5033
     14 C11        -0.0184    1.5028    0.0103 C.3       1 <0>         0.0440
     15 O2          1.3438    2.0054   -0.0000 O.3       1 <0>        -0.3330
     16 C12         1.5016    3.3383    0.0056 C.2       1 <0>         0.4677
     17 O3          0.5336    4.0612    0.0188 O.2       1 <0>        -0.4860
     18 C13         2.8862    3.9332   -0.0044 C.3       1 <0>        -0.1033
     19 C14         2.7854    5.4599    0.0048 C.3       1 <0>        -0.0894
     20 H1          2.1718    5.7915   -0.8328 H         1 <0>         0.1623
     21 C15         4.1637    6.0591   -0.1029 C.2       1 <0>         0.5313
     22 O4          4.5466    6.4342   -1.1911 O.2       1 <0>        -0.5028
     23 N3          4.9801    6.1964    0.9368 N.am      1 <0>        -0.6516
     24 C16         4.6779    5.9336    2.2696 C.ar      1 <0>         0.1555
     25 C17         5.7161    5.7815    3.1837 C.ar      1 <0>        -0.1389
     26 C18         5.4424    5.5093    4.5093 C.ar      1 <0>        -0.0812
     27 C19         4.1355    5.3858    4.9445 C.ar      1 <0>        -0.1247
     28 C20         3.0936    5.5388    4.0482 C.ar      1 <0>        -0.0563
     29 C21         3.3628    5.8127    2.7174 C.ar      1 <0>        -0.1442
     30 S1          2.0375    6.0139    1.5678 S.3       1 <0>        -0.0465
     31 N4         -0.0682   -2.9007   -0.0188 N.pl3     1 <0>        -0.5743
     32 H2         -2.3420   -7.5934   -0.0163 H         1 <0>         0.1418
     33 H3          0.1178   -7.5599   -0.0404 H         1 <0>         0.1422
     34 H4          1.3275   -5.4192   -0.0417 H         1 <0>         0.1404
     35 H5         -3.6093   -5.4864    0.0067 H         1 <0>         0.1382
     36 H6         -3.2050   -2.6315    0.0185 H         1 <0>         0.4458
     37 H7         -0.5021    1.8340   -0.7999 H         1 <0>         0.0890
     38 H8         -0.5286    1.8543    0.9071 H         1 <0>         0.1021
     39 H9          3.4313    3.5998    0.8787 H         1 <0>         0.1153
     40 H10         3.4144    3.6093   -0.9012 H         1 <0>         0.1272
     41 H11         5.8775    6.5122    0.7475 H         1 <0>         0.4162
     42 H12         6.7403    5.8765    2.8547 H         1 <0>         0.1342
     43 H13         6.2547    5.3917    5.2113 H         1 <0>         0.1344
     44 H14         3.9290    5.1710    5.9826 H         1 <0>         0.1349
     45 H15         2.0719    5.4442    4.3851 H         1 <0>         0.1375
     46 H16         0.8458   -2.5763   -0.0306 H         1 <0>         0.4570
@<TRIPOS>BOND
     1    1    6 ar
     2    1    2 ar
     3    1   32 1
     4    2    3 ar
     5    2   33 1
     6    3    4 ar
     7    3   34 1
     8    4   31 1
     9    4    5 ar
    10    5    6 ar
    11    5    7 1
    12    6   35 1
    13    7    8 1
    14    7   36 1
    15    8    9 2
    16    8   31 1
    17    9   10 1
    18    9   12 1
    19   10   11 3
    20   12   13 2
    21   12   14 1
    22   14   15 1
    23   14   37 1
    24   14   38 1
    25   15   16 1
    26   16   17 2
    27   16   18 1
    28   18   19 1
    29   18   39 1
    30   18   40 1
    31   19   20 1
    32   19   30 1
    33   19   21 1
    34   21   22 2
    35   21   23 am
    36   23   24 1
    37   23   41 1
    38   24   29 ar
    39   24   25 ar
    40   25   26 ar
    41   25   42 1
    42   26   27 ar
    43   26   43 1
    44   27   28 ar
    45   27   44 1
    46   28   29 ar
    47   28   45 1
    48   29   30 1
    49   31   46 1
@<TRIPOS>MOLECULE
ZINC14405768
   50    52     0     0     0
SMALL
USER_CHARGES
[(1S)-3-[4-[(5-chloro-2-thienyl)sulfonyl]piperazin-1-yl]-3-oxo-1-phenyl-propyl]urea
@<TRIPOS>ATOM
      1 C1          4.1012   -5.7200   -9.2667 C.ar      1 <0>        -0.1206
      2 C2          3.9519   -4.6350  -10.1102 C.ar      1 <0>        -0.1177
      3 C3          4.1534   -3.3542   -9.6310 C.ar      1 <0>        -0.1020
      4 C4          4.5038   -3.1582   -8.3082 C.ar      1 <0>        -0.0830
      5 C5          4.6582   -4.2435   -7.4661 C.ar      1 <0>        -0.1105
      6 C6          4.4525   -5.5241   -7.9442 C.ar      1 <0>        -0.1163
      7 C7          4.7234   -1.7618   -7.7858 C.3       1 <0>         0.2291
      8 H1          5.7494   -1.4550   -7.9891 H         1 <0>         0.1084
      9 C8          4.4731   -1.7366   -6.2767 C.3       1 <0>        -0.1658
     10 C9          4.8109   -0.3719   -5.7341 C.2       1 <0>         0.5239
     11 O1          5.2124    0.4953   -6.4810 O.2       1 <0>        -0.5367
     12 N1          4.6669   -0.1149   -4.4190 N.am      1 <0>        -0.6117
     13 C10         4.9925    1.2113   -3.8759 C.3       1 <0>         0.0961
     14 C11         6.0136    1.0404   -2.7444 C.3       1 <0>         0.1043
     15 N2          5.5287   -0.0008   -1.8275 N.pl3     1 <0>        -0.9932
     16 C12         5.2084   -1.3287   -2.3697 C.3       1 <0>         0.1030
     17 C13         4.1820   -1.1562   -3.5021 C.3       1 <0>         0.0896
     18 S1          5.3528    0.3146   -0.2114 S.o2      1 <0>         2.7229
     19 O2          6.2273    1.3934    0.0894 O.2       1 <0>        -0.9397
     20 O3          5.4290   -0.9370    0.4573 O.2       1 <0>        -0.9382
     21 C14         3.7131    0.9139    0.0270 C.2       1 <0>        -0.7651
     22 C15         2.5817    0.2190    0.2980 C.2       1 <0>         0.0033
     23 C16         1.3913    0.9067    0.4460 C.2       1 <0>        -0.1748
     24 C17         1.3921    2.2570    0.3155 C.2       1 <0>        -0.0852
     25 S2          3.1115    2.5939   -0.0268 S.3       1 <0>         0.2219
     26 Cl1         0.0643    3.3682    0.4413 Cl        1 <0>         0.0376
     27 N3          3.7977   -0.8408   -8.4498 N.am      1 <0>        -0.7319
     28 C18         2.4701   -1.0680   -8.4009 C.2       1 <0>         0.7059
     29 O4          2.0342   -1.9824   -7.7284 O.2       1 <0>        -0.5857
     30 N4          1.6257   -0.2817   -9.0975 N.am      1 <0>        -0.8693
     31 H2          3.9431   -6.7207   -9.6409 H         1 <0>         0.1201
     32 H3          3.6774   -4.7881  -11.1435 H         1 <0>         0.1193
     33 H4          4.0367   -2.5065  -10.2900 H         1 <0>         0.1156
     34 H5          4.9363   -4.0907   -6.4337 H         1 <0>         0.1222
     35 H6          4.5688   -6.3718   -7.2851 H         1 <0>         0.1221
     36 H7          5.0994   -2.4856   -5.7919 H         1 <0>         0.1050
     37 H8          3.4241   -1.9569   -6.0786 H         1 <0>         0.1229
     38 H9          4.0885    1.6787   -3.4854 H         1 <0>         0.0722
     39 H10         5.4188    1.8341   -4.6624 H         1 <0>         0.1087
     40 H11         6.1225    1.9812   -2.2047 H         1 <0>         0.1049
     41 H12         6.9767    0.7430   -3.1591 H         1 <0>         0.0874
     42 H13         6.1141   -1.7924   -2.7607 H         1 <0>         0.0881
     43 H14         4.7855   -1.9530   -1.5825 H         1 <0>         0.1073
     44 H15         3.2203   -0.8573   -3.0850 H         1 <0>         0.0772
     45 H16         4.0702   -2.0962   -4.0425 H         1 <0>         0.1023
     46 H17         2.6094   -0.8561    0.3971 H         1 <0>         0.1572
     47 H18         0.4753    0.3772    0.6626 H         1 <0>         0.1551
     48 H19         4.1402   -0.0674   -8.9247 H         1 <0>         0.4033
     49 H20         1.9735    0.4478   -9.6340 H         1 <0>         0.3965
     50 H21         0.6703   -0.4453   -9.0623 H         1 <0>         0.4141
@<TRIPOS>BOND
     1    1    6 ar
     2    1    2 ar
     3    1   31 1
     4    2    3 ar
     5    2   32 1
     6    3    4 ar
     7    3   33 1
     8    4    5 ar
     9    4    7 1
    10    5    6 ar
    11    5   34 1
    12    6   35 1
    13    7    8 1
    14    7    9 1
    15    7   27 1
    16    9   10 1
    17    9   36 1
    18    9   37 1
    19   10   11 2
    20   10   12 am
    21   12   17 1
    22   12   13 1
    23   13   14 1
    24   13   38 1
    25   13   39 1
    26   14   15 1
    27   14   40 1
    28   14   41 1
    29   15   16 1
    30   15   18 1
    31   16   17 1
    32   16   42 1
    33   16   43 1
    34   17   44 1
    35   17   45 1
    36   18   19 2
    37   18   20 2
    38   18   21 1
    39   21   25 1
    40   21   22 2
    41   22   23 1
    42   22   46 1
    43   23   24 2
    44   23   47 1
    45   24   25 1
    46   24   26 1
    47   27   28 am
    48   27   48 1
    49   28   29 2
    50   28   30 am
    51   30   49 1
    52   30   50 1
@<TRIPOS>MOLECULE
ZINC28759737
   62    66     0     0     0
SMALL
USER_CHARGES
dihydroxy-(hydroxymethyl)-trimethyl-(2-pyridyl)BLAHdione
@<TRIPOS>ATOM
      1 C1         -2.4654    3.0852    0.3361 C.3       1 <0>        -0.1702
      2 C2         -2.4144    1.5640    0.2421 C.3       1 <0>        -0.0191
      3 C3         -3.8578    1.0303    0.2694 C.3       1 <0>        -0.1204
      4 C4         -4.5133    1.3980    1.5977 C.3       1 <0>        -0.1150
      5 C5         -3.7799    0.7326    2.7541 C.3       1 <0>         0.1381
      6 H1         -3.9129   -0.3570    2.6828 H         1 <0>         0.0379
      7 C6         -2.2891    1.0693    2.7658 C.3       1 <0>        -0.0721
      8 C7         -1.6551    0.9246    1.4016 C.3       1 <0>        -0.0648
      9 H2         -1.7198   -0.1614    1.2388 H         1 <0>         0.0646
     10 C8         -0.1897    1.3515    1.3785 C.3       1 <0>        -0.1020
     11 C9          0.4554    0.7895    0.1033 C.3       1 <0>         0.1402
     12 H3          0.4365   -0.3103    0.0915 H         1 <0>         0.0679
     13 C10        -0.2548    1.3458   -1.1233 C.3       1 <0>         0.1018
     14 C11        -1.7585    1.1154   -1.0564 C.3       1 <0>        -0.1478
     15 H4         -1.9412    0.0307   -1.0505 H         1 <0>         0.1108
     16 C12        -2.3945    1.6937   -2.2948 C.2       1 <0>         0.4257
     17 O1         -3.5074    2.1699   -2.2966 O.2       1 <0>        -0.4109
     18 C13        -1.6319    1.6419   -3.4928 C.2       1 <0>        -0.4158
     19 C14        -0.3243    1.1198   -3.4600 C.2       1 <0>         0.3069
     20 C15         0.4129    1.1051   -4.6512 C.2       1 <0>        -0.2311
     21 C16        -0.1510    1.5903   -5.7930 C.2       1 <0>         0.2448
     22 O2         -1.3974    2.0789   -5.8343 O.3       1 <0>        -0.2548
     23 C17        -2.1493    2.1106   -4.7217 C.2       1 <0>         0.5261
     24 O3         -3.2824    2.5519   -4.7797 O.2       1 <0>        -0.4318
     25 C18         0.6470    1.5793   -7.0365 C.ar      1 <0>         0.1274
     26 C19         0.0916    2.0676   -8.2199 C.ar      1 <0>        -0.1194
     27 C20         0.8543    2.0556   -9.3755 C.ar      1 <0>        -0.0756
     28 C21         2.1429    1.5458   -9.3132 C.ar      1 <0>        -0.1415
     29 C22         2.6288    1.0722   -8.1058 C.ar      1 <0>         0.1081
     30 N1          1.8858    1.0996   -7.0204 N.ar      1 <0>        -0.4525
     31 O4          0.2071    0.6517   -2.3070 O.3       1 <0>        -0.2894
     32 C23         0.1189    2.8164   -1.3108 C.3       1 <0>        -0.1920
     33 O5          1.8363    1.1576    0.0706 O.3       1 <0>        -0.5852
     34 C24        -2.0705    2.4520    3.3792 C.3       1 <0>        -0.1393
     35 C25        -1.6220    0.0445    3.7181 C.3       1 <0>         0.0861
     36 O6         -2.2012    0.1565    5.0196 O.3       1 <0>        -0.6000
     37 O7         -4.3630    1.1585    3.9923 O.3       1 <0>        -0.5952
     38 H5         -3.0228    3.4871   -0.5229 H         1 <0>         0.0710
     39 H6         -1.4416    3.4875    0.3296 H         1 <0>         0.0630
     40 H7         -2.9686    3.3782    1.2693 H         1 <0>         0.0779
     41 H8         -4.4297    1.4774   -0.5571 H         1 <0>         0.0972
     42 H9         -3.8463   -0.0639    0.1575 H         1 <0>         0.0597
     43 H10        -4.4803    2.4891    1.7332 H         1 <0>         0.0758
     44 H11        -5.5602    1.0603    1.5959 H         1 <0>         0.0708
     45 H12        -0.1277    2.4497    1.3804 H         1 <0>         0.0870
     46 H13         0.3221    0.9538    2.2672 H         1 <0>         0.0878
     47 H14         1.4204    0.7154   -4.6640 H         1 <0>         0.1850
     48 H15        -0.9172    2.4531   -8.2333 H         1 <0>         0.1509
     49 H16         0.4534    2.4307  -10.3055 H         1 <0>         0.1481
     50 H17         2.7614    1.5182  -10.1981 H         1 <0>         0.1474
     51 H18         3.6319    0.6751   -8.0545 H         1 <0>         0.1714
     52 H19        -0.3956    3.2153   -2.1975 H         1 <0>         0.0657
     53 H20         1.2068    2.9036   -1.4479 H         1 <0>         0.0870
     54 H21        -0.1857    3.3883   -0.4219 H         1 <0>         0.0979
     55 H22         2.4693    0.8439   -0.7725 H         1 <0>         0.4148
     56 H23        -0.9956    2.6855    3.3834 H         1 <0>         0.0508
     57 H24        -2.4514    2.4597    4.4111 H         1 <0>         0.0728
     58 H25        -2.6072    3.2059    2.7846 H         1 <0>         0.0625
     59 H26        -1.7819   -0.9730    3.3319 H         1 <0>         0.0410
     60 H27        -0.5427    0.2484    3.7783 H         1 <0>         0.0485
     61 H28        -1.8527   -0.4949    5.8346 H         1 <0>         0.4160
     62 H29        -3.9649    0.7818    4.9460 H         1 <0>         0.4096
@<TRIPOS>BOND
     1    1    2 1
     2    1   38 1
     3    1   39 1
     4    1   40 1
     5    2    8 1
     6    2   14 1
     7    2    3 1
     8    3    4 1
     9    3   41 1
    10    3   42 1
    11    4    5 1
    12    4   43 1
    13    4   44 1
    14    5    6 1
    15    5    7 1
    16    5   37 1
    17    7    8 1
    18    7   34 1
    19    7   35 1
    20    8    9 1
    21    8   10 1
    22   10   11 1
    23   10   45 1
    24   10   46 1
    25   11   12 1
    26   11   13 1
    27   11   33 1
    28   13   31 1
    29   13   14 1
    30   13   32 1
    31   14   15 1
    32   14   16 1
    33   16   17 2
    34   16   18 1
    35   18   23 1
    36   18   19 2
    37   19   20 1
    38   19   31 1
    39   20   21 2
    40   20   47 1
    41   21   22 1
    42   21   25 1
    43   22   23 1
    44   23   24 2
    45   25   30 ar
    46   25   26 ar
    47   26   27 ar
    48   26   48 1
    49   27   28 ar
    50   27   49 1
    51   28   29 ar
    52   28   50 1
    53   29   30 ar
    54   29   51 1
    55   32   52 1
    56   32   53 1
    57   32   54 1
    58   33   55 1
    59   34   56 1
    60   34   57 1
    61   34   58 1
    62   35   36 1
    63   35   59 1
    64   35   60 1
    65   36   61 1
    66   37   62 1
@<TRIPOS>MOLECULE
ZINC40021904
   53    56     0     0     0
SMALL
USER_CHARGES

@<TRIPOS>ATOM
      1 C1         -0.0184    1.5028    0.0103 C.3       1 <0>        -0.1163
      2 C2          0.0021   -0.0041    0.0020 C.ar      1 <0>        -0.1101
      3 C3          0.0057   -0.6853   -1.1951 C.ar      1 <0>        -0.0292
      4 C4          0.0237   -2.0796   -1.1943 C.ar      1 <0>        -0.2146
      5 C5          0.0334   -2.7933    0.0156 C.ar      1 <0>         0.1408
      6 C6          0.0325   -2.0802    1.2137 C.ar      1 <0>        -0.1350
      7 C7          0.0230   -0.7034    1.2003 C.ar      1 <0>        -0.0201
      8 C8          0.0294    0.0535    2.5035 C.3       1 <0>        -0.1247
      9 O1          0.0373   -4.1453    0.0566 O.3       1 <0>        -0.1820
     10 C9          0.2731   -4.8456   -1.0703 C.2       1 <0>         0.0929
     11 C10         0.2802   -4.2688   -2.3083 C.2       1 <0>        -0.2536
     12 C11         0.0360   -2.8320   -2.4744 C.2       1 <0>         0.4573
     13 O2         -0.1399   -2.3061   -3.5591 O.2       1 <0>        -0.4355
     14 C12         0.5662   -5.3404   -3.3085 C.3       1 <0>         0.2355
     15 H1          1.4840   -5.1132   -3.8509 H         1 <0>         0.1156
     16 N1          0.7288   -6.5807   -2.5325 N.am      1 <0>        -0.5910
     17 C13         0.5571   -6.2828   -1.2283 C.2       1 <0>         0.5736
     18 O3          0.6266   -7.0829   -0.3167 O.2       1 <0>        -0.4718
     19 C14         1.0251   -7.9065   -3.0808 C.3       1 <0>         0.1400
     20 C15         2.5409   -8.1043   -3.1460 C.3       1 <0>         0.0543
     21 O4          3.0773   -8.1144   -1.8216 O.3       1 <0>        -0.5614
     22 C16        -0.5859   -5.4745   -4.2706 C.ar      1 <0>        -0.1363
     23 C17        -1.7297   -6.1504   -3.8877 C.ar      1 <0>        -0.0573
     24 C18        -2.7870   -6.2751   -4.7680 C.ar      1 <0>        -0.1450
     25 C19        -2.7007   -5.7210   -6.0369 C.ar      1 <0>         0.1389
     26 C20        -1.5521   -5.0429   -6.4185 C.ar      1 <0>        -0.2081
     27 C21        -0.4996   -4.9165   -5.5327 C.ar      1 <0>        -0.0431
     28 O5         -3.7393   -5.8427   -6.9049 O.3       1 <0>        -0.2883
     29 C22        -3.5805   -5.2473   -8.1942 C.3       1 <0>         0.0384
     30 C23        -4.8238   -5.4824   -9.0127 C.2       1 <0>         0.5191
     31 O6         -5.7543   -6.0992   -8.5386 O.2       1 <0>        -0.5163
     32 N2         -4.9017   -5.0074  -10.2715 N.am      1 <0>        -0.8499
     33 H2          1.0042    1.8801    0.0026 H         1 <0>         0.0756
     34 H3         -0.5455    1.8639   -0.8728 H         1 <0>         0.0716
     35 H4         -0.5286    1.8543    0.9071 H         1 <0>         0.0741
     36 H5         -0.0057   -0.1428   -2.1289 H         1 <0>         0.1450
     37 H6          0.0438   -2.6093    2.1551 H         1 <0>         0.1472
     38 H7         -0.9965    0.2250    2.8292 H         1 <0>         0.0827
     39 H8          0.5580   -0.5281    3.2588 H         1 <0>         0.0757
     40 H9          0.5316    1.0110    2.3651 H         1 <0>         0.0787
     41 H10         0.5862   -8.6711   -2.4399 H         1 <0>         0.1003
     42 H11         0.6047   -7.9874   -4.0832 H         1 <0>         0.1064
     43 H12         2.7628   -9.0527   -3.6351 H         1 <0>         0.0639
     44 H13         2.9896   -7.2890   -3.7135 H         1 <0>         0.0500
     45 H14         4.0360   -8.2361   -1.7864 H         1 <0>         0.3802
     46 H15        -1.7964   -6.5816   -2.8998 H         1 <0>         0.1256
     47 H16        -3.6799   -6.8038   -4.4687 H         1 <0>         0.1361
     48 H17        -1.4825   -4.6107   -7.4058 H         1 <0>         0.1318
     49 H18         0.3930   -4.3849   -5.8277 H         1 <0>         0.1308
     50 H19        -3.4168   -4.1756   -8.0818 H         1 <0>         0.0967
     51 H20        -2.7238   -5.6949   -8.6980 H         1 <0>         0.0964
     52 H21        -4.1575   -4.5141  -10.6507 H         1 <0>         0.4038
     53 H22        -5.7020   -5.1587  -10.7983 H         1 <0>         0.4105
@<TRIPOS>BOND
     1    1    2 1
     2    1   33 1
     3    1   34 1
     4    1   35 1
     5    2    7 ar
     6    2    3 ar
     7    3    4 ar
     8    3   36 1
     9    4   12 1
    10    4    5 ar
    11    5    6 ar
    12    5    9 1
    13    6    7 ar
    14    6   37 1
    15    7    8 1
    16    8   38 1
    17    8   39 1
    18    8   40 1
    19    9   10 1
    20   10   17 1
    21   10   11 2
    22   11   12 1
    23   11   14 1
    24   12   13 2
    25   14   15 1
    26   14   16 1
    27   14   22 1
    28   16   17 am
    29   16   19 1
    30   17   18 2
    31   19   20 1
    32   19   41 1
    33   19   42 1
    34   20   21 1
    35   20   43 1
    36   20   44 1
    37   21   45 1
    38   22   27 ar
    39   22   23 ar
    40   23   24 ar
    41   23   46 1
    42   24   25 ar
    43   24   47 1
    44   25   26 ar
    45   25   28 1
    46   26   27 ar
    47   26   48 1
    48   27   49 1
    49   28   29 1
    50   29   30 1
    51   29   50 1
    52   29   51 1
    53   30   31 2
    54   30   32 am
    55   32   52 1
    56   32   53 1
@<TRIPOS>MOLECULE
ZINC58819948
   56    60     0     0     0
SMALL
USER_CHARGES

@<TRIPOS>ATOM
      1 C1          0.5917    1.3665    1.0880 C.ar      1 <0>        -0.1526
      2 C2          1.1803    2.0961    0.0769 C.ar      1 <0>        -0.0444
      3 C3          1.7972    1.4412   -0.9902 C.ar      1 <0>        -0.1008
      4 C4          2.4973    1.8860   -2.1916 C.2       1 <0>        -0.1638
      5 C5          2.8809    0.7836   -2.8625 C.2       1 <0>         0.0807
      6 N1          2.4794   -0.3303   -2.1794 N.pl3     1 <0>        -0.5812
      7 H1          2.6386   -1.2441   -2.4630 H         1 <0>         0.4168
      8 C6          1.8174    0.0341   -1.0338 C.ar      1 <0>         0.1419
      9 C7          1.2143   -0.6943    0.0043 C.ar      1 <0>        -0.1464
     10 C8          0.6050   -0.0163    1.0581 C.ar      1 <0>        -0.0643
     11 C9          1.2252   -2.1691   -0.0211 C.2       1 <0>         0.5672
     12 O1          2.2769   -2.7673   -0.1413 O.2       1 <0>        -0.5340
     13 N2          0.0693   -2.8535    0.0890 N.am      1 <0>        -0.6065
     14 C10        -1.2197   -2.1477    0.1012 C.3       1 <0>         0.0912
     15 C11        -2.1055   -2.7257   -1.0094 C.3       1 <0>         0.1012
     16 N3         -2.0994   -4.1913   -0.8999 N.pl3     1 <0>        -0.9896
     17 C12        -0.8104   -4.8971   -0.9121 C.3       1 <0>         0.1003
     18 C13         0.0751   -4.3195    0.1928 C.3       1 <0>         0.0995
     19 S1         -3.5196   -5.0322   -0.7647 S.o2      1 <0>         2.7147
     20 O2         -3.2025   -6.2662   -0.1353 O.2       1 <0>        -0.9222
     21 O3         -4.4774   -4.1286   -0.2306 O.2       1 <0>        -0.9280
     22 C14        -4.0516   -5.4223   -2.3985 C.2       1 <0>        -0.5573
     23 C15        -3.7313   -6.5419   -3.0842 C.2       1 <0>        -0.0920
     24 C16        -4.3601   -6.4537   -4.3360 C.2       1 <0>        -0.1379
     25 C17        -5.0407   -5.2701   -4.3509 C.2       1 <0>        -0.0272
     26 O4         -4.8448   -4.6608   -3.1632 O.3       1 <0>        -0.1082
     27 C18        -5.8472   -4.7537   -5.4617 C.2       1 <0>         0.6058
     28 O5         -5.9534   -5.3990   -6.4879 O.2       1 <0>        -0.5078
     29 N4         -6.4707   -3.5644   -5.3458 N.am      1 <0>        -0.8363
     30 C19         3.6381    0.8200   -4.1701 C.3       1 <0>        -0.0585
     31 C20         3.5064    2.2241   -4.7703 C.3       1 <0>        -0.1141
     32 C21         3.8633    3.2695   -3.7098 C.3       1 <0>        -0.1217
     33 C22         2.7663    3.2997   -2.6382 C.3       1 <0>        -0.0455
     34 H2          0.1198    1.8794    1.9130 H         1 <0>         0.1316
     35 H3          1.1638    3.1754    0.1105 H         1 <0>         0.1275
     36 H4          0.1401   -0.5744    1.8573 H         1 <0>         0.1310
     37 H5         -1.7049   -2.2889    1.0669 H         1 <0>         0.0843
     38 H6         -1.0564   -1.0848   -0.0770 H         1 <0>         0.1092
     39 H7         -3.1240   -2.3546   -0.8954 H         1 <0>         0.1123
     40 H8         -1.7124   -2.4299   -1.9821 H         1 <0>         0.0787
     41 H9         -0.9737   -5.9600   -0.7339 H         1 <0>         0.1109
     42 H10        -0.3251   -4.7559   -1.8779 H         1 <0>         0.0796
     43 H11         1.0932   -4.6905    0.0751 H         1 <0>         0.1105
     44 H12        -0.3159   -4.6189    1.1653 H         1 <0>         0.0816
     45 H13        -3.1084   -7.3520   -2.7348 H         1 <0>         0.1776
     46 H14        -4.3142   -7.1810   -5.1331 H         1 <0>         0.1758
     47 H15        -6.3860   -3.0500   -4.5278 H         1 <0>         0.4104
     48 H16        -7.0041   -3.2228   -6.0805 H         1 <0>         0.4155
     49 H17         4.6896    0.5956   -3.9907 H         1 <0>         0.0839
     50 H18         3.2166    0.0868   -4.8578 H         1 <0>         0.0775
     51 H19         4.1838    2.3215   -5.6186 H         1 <0>         0.0736
     52 H20         2.4809    2.3814   -5.1047 H         1 <0>         0.0687
     53 H21         4.8157    3.0089   -3.2481 H         1 <0>         0.0660
     54 H22         3.9417    4.2506   -4.1780 H         1 <0>         0.0703
     55 H23         1.8571    3.7309   -3.0570 H         1 <0>         0.0718
     56 H24         3.1003    3.8951   -1.7885 H         1 <0>         0.0727
@<TRIPOS>BOND
     1    1   10 ar
     2    1    2 ar
     3    1   34 1
     4    2    3 ar
     5    2   35 1
     6    3    8 ar
     7    3    4 1
     8    4   33 1
     9    4    5 2
    10    5    6 1
    11    5   30 1
    12    6    7 1
    13    6    8 1
    14    8    9 ar
    15    9   10 ar
    16    9   11 1
    17   10   36 1
    18   11   12 2
    19   11   13 am
    20   13   18 1
    21   13   14 1
    22   14   15 1
    23   14   37 1
    24   14   38 1
    25   15   16 1
    26   15   39 1
    27   15   40 1
    28   16   17 1
    29   16   19 1
    30   17   18 1
    31   17   41 1
    32   17   42 1
    33   18   43 1
    34   18   44 1
    35   19   20 2
    36   19   21 2
    37   19   22 1
    38   22   26 1
    39   22   23 2
    40   23   24 1
    41   23   45 1
    42   24   25 2
    43   24   46 1
    44   25   26 1
    45   25   27 1
    46   27   28 2
    47   27   29 am
    48   29   47 1
    49   29   48 1
    50   30   31 1
    51   30   49 1
    52   30   50 1
    53   31   32 1
    54   31   51 1
    55   31   52 1
    56   32   33 1
    57   32   53 1
    58   32   54 1
    59   33   55 1
    60   33   56 1
@<TRIPOS>MOLECULE
ZINC00705599
   51    54     0     0     0
SMALL
USER_CHARGES
methyl benzyl amino-methyl-oxo-BLAHdicarboxylate
@<TRIPOS>ATOM
      1 C1         -2.3758    1.1210   -0.0271 C.3       1 <0>        -0.1219
      2 C2         -1.1489    1.9957   -0.0023 C.2       1 <0>         0.1583
      3 C3          0.0591    1.4154    0.0071 C.2       1 <0>        -0.2169
      4 C4          1.3110    2.2436    0.0226 C.3       1 <0>         0.0924
      5 C5          1.9727    2.1781    1.3760 C.ar      1 <0>        -0.1269
      6 C6          1.5689    2.5470    2.6396 C.ar      1 <0>        -0.0489
      7 C7          2.4155    2.3594    3.7180 C.ar      1 <0>        -0.1408
      8 C8          3.6659    1.8019    3.5224 C.ar      1 <0>        -0.0783
      9 C9          4.0739    1.4319    2.2578 C.ar      1 <0>        -0.1403
     10 C10         3.2273    1.6175    1.1668 C.ar      1 <0>         0.1614
     11 N1          3.4076    1.3294   -0.1870 N.am      1 <0>        -0.6510
     12 C11         2.3350    1.6650   -0.9254 C.2       1 <0>         0.5475
     13 O1          2.2129    1.5290   -2.1245 O.2       1 <0>        -0.4784
     14 C12         1.0045    3.6668   -0.3459 C.2       1 <0>        -0.3368
     15 C13        -0.2768    4.1214   -0.3301 C.2       1 <0>         0.4676
     16 O2         -1.3036    3.3275    0.0155 O.3       1 <0>        -0.2342
     17 N2         -0.5269    5.4223   -0.6759 N.pl3     1 <0>        -0.8074
     18 C14         2.0473    4.5331   -0.7085 C.2       1 <0>         0.5365
     19 O3          1.8190    5.7141   -0.9007 O.2       1 <0>        -0.5329
     20 O4          3.3041    4.0575   -0.8443 O.3       1 <0>        -0.3491
     21 C15         4.3162    4.9955   -1.2154 C.3       1 <0>         0.0399
     22 C16         0.1559    0.0020   -0.0035 C.2       1 <0>         0.5259
     23 O5          0.4515   -0.5951    1.0144 O.2       1 <0>        -0.4747
     24 O6         -0.0798   -0.6817   -1.1424 O.3       1 <0>        -0.3353
     25 C17         0.0357   -2.1047   -1.0806 C.3       1 <0>         0.1060
     26 C18        -0.2607   -2.6922   -2.4363 C.ar      1 <0>        -0.0992
     27 C19        -1.5547   -3.0484   -2.7673 C.ar      1 <0>        -0.0957
     28 C20        -1.8272   -3.5836   -4.0124 C.ar      1 <0>        -0.1230
     29 C21        -0.8044   -3.7707   -4.9232 C.ar      1 <0>        -0.1075
     30 C22         0.4904   -3.4189   -4.5905 C.ar      1 <0>        -0.1214
     31 C23         0.7623   -2.8801   -3.3469 C.ar      1 <0>        -0.0912
     32 H1         -2.6307    0.8236    0.9901 H         1 <0>         0.1019
     33 H2         -3.2076    1.6743   -0.4631 H         1 <0>         0.0990
     34 H3         -2.1766    0.2325   -0.6263 H         1 <0>         0.1028
     35 H4          0.5916    2.9817    2.7892 H         1 <0>         0.1212
     36 H5          2.1004    2.6474    4.7100 H         1 <0>         0.1300
     37 H6          4.3263    1.6551    4.3643 H         1 <0>         0.1316
     38 H7          5.0518    0.9970    2.1130 H         1 <0>         0.1269
     39 H8          4.2136    0.9325   -0.5529 H         1 <0>         0.4144
     40 H9          0.0043    5.8519   -1.3646 H         1 <0>         0.4358
     41 H10        -1.2353    5.9145   -0.2323 H         1 <0>         0.4104
     42 H11         4.0650    5.4387   -2.1791 H         1 <0>         0.0598
     43 H12         4.3796    5.7792   -0.4605 H         1 <0>         0.0609
     44 H13         5.2759    4.4841   -1.2898 H         1 <0>         0.0984
     45 H14         1.0486   -2.3744   -0.7813 H         1 <0>         0.0774
     46 H15        -0.6746   -2.4956   -0.3520 H         1 <0>         0.0807
     47 H16        -2.3532   -2.9057   -2.0543 H         1 <0>         0.1244
     48 H17        -2.8387   -3.8588   -4.2722 H         1 <0>         0.1263
     49 H18        -1.0168   -4.1920   -5.8947 H         1 <0>         0.1252
     50 H19         1.2896   -3.5654   -5.3020 H         1 <0>         0.1262
     51 H20         1.7739   -2.6056   -3.0867 H         1 <0>         0.1233
@<TRIPOS>BOND
     1    1    2 1
     2    1   32 1
     3    1   33 1
     4    1   34 1
     5    2   16 1
     6    2    3 2
     7    3    4 1
     8    3   22 1
     9    4   12 1
    10    4    5 1
    11    4   14 1
    12    5   10 ar
    13    5    6 ar
    14    6    7 ar
    15    6   35 1
    16    7    8 ar
    17    7   36 1
    18    8    9 ar
    19    8   37 1
    20    9   10 ar
    21    9   38 1
    22   10   11 1
    23   11   12 am
    24   11   39 1
    25   12   13 2
    26   14   15 2
    27   14   18 1
    28   15   16 1
    29   15   17 1
    30   17   40 1
    31   17   41 1
    32   18   19 2
    33   18   20 1
    34   20   21 1
    35   21   42 1
    36   21   43 1
    37   21   44 1
    38   22   23 2
    39   22   24 1
    40   24   25 1
    41   25   26 1
    42   25   45 1
    43   25   46 1
    44   26   31 ar
    45   26   27 ar
    46   27   28 ar
    47   27   47 1
    48   28   29 ar
    49   28   48 1
    50   29   30 ar
    51   29   49 1
    52   30   31 ar
    53   30   50 1
    54   31   51 1
@<TRIPOS>MOLECULE
ZINC16118612
   48    51     0     0     0
SMALL
USER_CHARGES
[2-oxo-2-(5-sulfamoylindolin-1-yl)ethyl] 1-hydroxynaphthalene-2-carboxylate
@<TRIPOS>ATOM
      1 C1         -0.0126    1.0758    0.0080 C.ar      1 <0>        -0.0928
      2 C2         -1.2338    1.7454    0.0174 C.ar      1 <0>        -0.1214
      3 C3         -1.2855    3.1064    0.0301 C.ar      1 <0>        -0.0842
      4 C4         -0.0929    3.8476    0.0226 C.ar      1 <0>        -0.0954
      5 C5          1.1496    3.1671    0.0076 C.ar      1 <0>        -0.0104
      6 C6          1.1634    1.7628    0.0004 C.ar      1 <0>        -0.1171
      7 C7          2.3500    3.9039   -0.0004 C.ar      1 <0>        -0.1234
      8 C8          2.3191    5.2593    0.0067 C.ar      1 <0>        -0.0591
      9 C9          1.0952    5.9548    0.0212 C.ar      1 <0>        -0.1616
     10 C10        -0.1115    5.2572    0.0294 C.ar      1 <0>         0.2089
     11 O1         -1.2889    5.9262    0.0434 O.3       1 <0>        -0.4716
     12 C11         1.0898    7.4265    0.0281 C.2       1 <0>         0.5137
     13 O2          0.0350    8.0303    0.0410 O.2       1 <0>        -0.4887
     14 O3          2.2545    8.1048    0.0202 O.3       1 <0>        -0.3303
     15 C12         2.1732    9.5545    0.0277 C.3       1 <0>         0.0573
     16 C13         3.5636   10.1357    0.0172 C.2       1 <0>         0.5277
     17 O4          4.5281    9.4005    0.0046 O.2       1 <0>        -0.4813
     18 N1          3.7352   11.4725    0.0218 N.am      1 <0>        -0.5551
     19 C14         2.6513   12.4586    0.0304 C.3       1 <0>         0.0905
     20 C15         3.3514   13.8273    0.0365 C.3       1 <0>        -0.0853
     21 C16         4.8276   13.5000    0.0209 C.ar      1 <0>        -0.1570
     22 C17         4.9737   12.1217    0.0130 C.ar      1 <0>         0.2068
     23 C18         6.2586   11.5764   -0.0025 C.ar      1 <0>        -0.1517
     24 C19         7.3637   12.4009   -0.0099 C.ar      1 <0>         0.0100
     25 C20         7.2073   13.7745   -0.0019 C.ar      1 <0>        -0.6973
     26 C21         5.9378   14.3221    0.0134 C.ar      1 <0>         0.0250
     27 S1          8.6222   14.8247   -0.0108 S.o2      1 <0>         2.7060
     28 O5          8.2115   16.0641    0.5498 O.2       1 <0>        -0.9635
     29 O6          9.6958   14.0642    0.5260 O.2       1 <0>        -0.9622
     30 N2          8.9999   15.1238   -1.5952 N.pl3     1 <0>        -1.2503
     31 H1          0.0021   -0.0041    0.0020 H         1 <0>         0.1296
     32 H2         -2.1525    1.1775    0.0191 H         1 <0>         0.1297
     33 H3         -2.2392    3.6131    0.0415 H         1 <0>         0.1356
     34 H4          2.1027    1.2299   -0.0107 H         1 <0>         0.1350
     35 H5          3.2984    3.3873   -0.0115 H         1 <0>         0.1394
     36 H6          3.2462    5.8132    0.0008 H         1 <0>         0.1447
     37 H7         -1.6227    6.1163    0.9307 H         1 <0>         0.4017
     38 H8          1.6313    9.8927   -0.8555 H         1 <0>         0.1099
     39 H9          1.6483    9.8843    0.9243 H         1 <0>         0.1096
     40 H10         2.0350   12.3508   -0.8621 H         1 <0>         0.0943
     41 H11         2.0427   12.3436    0.9273 H         1 <0>         0.0939
     42 H12         3.0953   14.3855    0.9370 H         1 <0>         0.1011
     43 H13         3.0782   14.3939   -0.8537 H         1 <0>         0.1002
     44 H14         6.3876   10.5042   -0.0084 H         1 <0>         0.1515
     45 H15         8.3549   11.9721   -0.0222 H         1 <0>         0.1508
     46 H16         5.8138   15.3949    0.0197 H         1 <0>         0.1486
     47 H17         8.4637   14.7343   -2.3035 H         1 <0>         0.4168
     48 H18         9.7573   15.6886   -1.8149 H         1 <0>         0.4214
@<TRIPOS>BOND
     1    1    6 ar
     2    1    2 ar
     3    1   31 1
     4    2    3 ar
     5    2   32 1
     6    3    4 ar
     7    3   33 1
     8    4   10 ar
     9    4    5 ar
    10    5    6 ar
    11    5    7 ar
    12    6   34 1
    13    7    8 ar
    14    7   35 1
    15    8    9 ar
    16    8   36 1
    17    9   10 ar
    18    9   12 1
    19   10   11 1
    20   11   37 1
    21   12   13 2
    22   12   14 1
    23   14   15 1
    24   15   16 1
    25   15   38 1
    26   15   39 1
    27   16   17 2
    28   16   18 am
    29   18   22 1
    30   18   19 1
    31   19   20 1
    32   19   40 1
    33   19   41 1
    34   20   21 1
    35   20   42 1
    36   20   43 1
    37   21   26 ar
    38   21   22 ar
    39   22   23 ar
    40   23   24 ar
    41   23   44 1
    42   24   25 ar
    43   24   45 1
    44   25   26 ar
    45   25   27 1
    46   26   46 1
    47   27   28 2
    48   27   29 2
    49   27   30 1
    50   30   47 1
    51   30   48 1
@<TRIPOS>MOLECULE
ZINC26743596
   51    53     0     0     0
SMALL
USER_CHARGES
4-methyl-3-[[(2-methylfuran-3-carbonyl)amino]carbamoyl]-N-(o-tolyl)benzenesulfonamide
@<TRIPOS>ATOM
      1 C1         -1.2483   -0.6249    1.2512 C.3       1 <0>        -0.1174
      2 C2         -1.6271    0.6019    0.4621 C.ar      1 <0>        -0.1028
      3 C3         -2.9393    1.0326    0.4413 C.ar      1 <0>        -0.0975
      4 C4         -3.2876    2.1585   -0.2817 C.ar      1 <0>        -0.1306
      5 C5         -2.3241    2.8569   -0.9867 C.ar      1 <0>        -0.0947
      6 C6         -1.0097    2.4345   -0.9663 C.ar      1 <0>        -0.1753
      7 C7         -0.6571    1.3008   -0.2447 C.ar      1 <0>         0.1560
      8 N1          0.6708    0.8683   -0.2255 N.pl3     1 <0>        -1.0648
      9 S1          1.9024    1.9753   -0.2335 S.o2      1 <0>         2.6943
     10 O1          3.1103    1.2400   -0.0935 O.2       1 <0>        -0.9468
     11 O2          1.6616    2.8427   -1.3329 O.2       1 <0>        -0.9449
     12 C8          1.7352    2.9512    1.2240 C.ar      1 <0>        -0.6908
     13 C9          0.9768    4.1083    1.1968 C.ar      1 <0>         0.0183
     14 C10         0.8365    4.8776    2.3380 C.ar      1 <0>        -0.1481
     15 C11         1.4614    4.5006    3.5090 C.ar      1 <0>         0.0482
     16 C12         2.2320    3.3376    3.5418 C.ar      1 <0>        -0.1546
     17 C13         2.3652    2.5630    2.3881 C.ar      1 <0>         0.0210
     18 C14         2.9049    2.9279    4.7929 C.2       1 <0>         0.5692
     19 O3          2.8819    3.6598    5.7631 O.2       1 <0>        -0.5269
     20 N2          3.5437    1.7429    4.8576 N.am      1 <0>        -0.5237
     21 N3          4.1813    1.3546    6.0432 N.am      1 <0>        -0.5262
     22 C15         4.8201    0.1696    6.1079 C.2       1 <0>         0.5975
     23 O4          4.8430   -0.5626    5.1372 O.2       1 <0>        -0.5434
     24 C16         5.4908   -0.2388    7.3551 C.2       1 <0>        -0.2475
     25 C17         5.5674    0.5194    8.6124 C.2       1 <0>        -0.1914
     26 C18         6.2694   -0.2457    9.4622 C.2       1 <0>        -0.0300
     27 O5          6.6286   -1.3791    8.8394 O.3       1 <0>        -0.1718
     28 C19         6.1753   -1.3967    7.5822 C.2       1 <0>         0.0946
     29 C20         6.3848   -2.5071    6.5851 C.3       1 <0>        -0.0822
     30 C21         1.3117    5.3427    4.7498 C.3       1 <0>        -0.1957
     31 H1         -2.1436   -1.0381    1.7389 H         1 <0>         0.0705
     32 H2         -0.5060   -0.3539    2.0164 H         1 <0>         0.0700
     33 H3         -0.8189   -1.3781    0.5743 H         1 <0>         0.0705
     34 H4         -3.6941    0.4896    0.9907 H         1 <0>         0.1264
     35 H5         -4.3142    2.4936   -0.2957 H         1 <0>         0.1251
     36 H6         -2.5995    3.7362   -1.5501 H         1 <0>         0.1296
     37 H7         -0.2571    2.9829   -1.5134 H         1 <0>         0.1603
     38 H8          0.8985   -0.2077   -0.2051 H         1 <0>         0.4545
     39 H9          0.4890    4.4100    0.2817 H         1 <0>         0.1471
     40 H10         0.2398    5.7774    2.3112 H         1 <0>         0.1441
     41 H11         2.9605    1.6621    2.4069 H         1 <0>         0.1415
     42 H12         3.5645    1.0806    3.9796 H         1 <0>         0.4572
     43 H13         4.1605    2.0169    6.9212 H         1 <0>         0.4591
     44 H14         5.1433    1.4924    8.8119 H         1 <0>         0.1593
     45 H15         6.5116    0.0118   10.4827 H         1 <0>         0.2112
     46 H16         6.9734   -3.3115    7.0504 H         1 <0>         0.0809
     47 H17         6.9247   -2.1168    5.7098 H         1 <0>         0.1000
     48 H18         5.4091   -2.9035    6.2673 H         1 <0>         0.0995
     49 H19         1.8777    4.8846    5.5743 H         1 <0>         0.1469
     50 H20         0.2484    5.4046    5.0248 H         1 <0>         0.0758
     51 H21         1.6997    6.3536    4.5559 H         1 <0>         0.0787
@<TRIPOS>BOND
     1    1    2 1
     2    1   31 1
     3    1   32 1
     4    1   33 1
     5    2    7 ar
     6    2    3 ar
     7    3    4 ar
     8    3   34 1
     9    4    5 ar
    10    4   35 1
    11    5    6 ar
    12    5   36 1
    13    6    7 ar
    14    6   37 1
    15    7    8 1
    16    8    9 1
    17    8   38 1
    18    9   10 2
    19    9   11 2
    20    9   12 1
    21   12   17 ar
    22   12   13 ar
    23   13   14 ar
    24   13   39 1
    25   14   15 ar
    26   14   40 1
    27   15   16 ar
    28   15   30 1
    29   16   17 ar
    30   16   18 1
    31   17   41 1
    32   18   19 2
    33   18   20 am
    34   20   21 1
    35   20   42 1
    36   21   22 am
    37   21   43 1
    38   22   23 2
    39   22   24 1
    40   24   28 2
    41   24   25 1
    42   25   26 2
    43   25   44 1
    44   26   27 1
    45   26   45 1
    46   27   28 1
    47   28   29 1
    48   29   46 1
    49   29   47 1
    50   29   48 1
    51   30   49 1
    52   30   50 1
    53   30   51 1
@<TRIPOS>MOLECULE
ZINC39012045
   43    45     0     0     0
SMALL
USER_CHARGES

@<TRIPOS>ATOM
      1 C1         -0.2875   -0.2945   -3.9173 C.3       1 <0>        -0.0905
      2 C2         -0.9538   -1.3520   -3.0754 C.2       1 <0>        -0.0344
      3 C3         -0.5358   -1.7326   -1.8662 C.2       1 <0>        -0.1447
      4 C4         -1.5312   -2.8033   -1.4557 C.3       1 <0>        -0.0177
      5 H1         -2.0680   -2.5057   -0.5549 H         1 <0>         0.1486
      6 N1         -2.4445   -2.8661   -2.6095 N.2       1 <0>        -0.1344
      7 N2         -2.0588   -2.0395   -3.4398 N.2       1 <0>        -0.1539
      8 C5         -0.8265   -4.1449   -1.2449 C.3       1 <0>         0.1604
      9 H2         -0.3270   -4.4586   -2.1615 H         1 <0>         0.1320
     10 N3          0.1398   -4.0475   -0.1434 N.2       1 <0>        -0.1409
     11 N4         -0.3029   -4.5657    0.8865 N.2       1 <0>        -0.1376
     12 C6         -1.6502   -5.1089    0.6710 C.3       1 <0>         0.1119
     13 H3         -2.4005   -4.4437    1.0984 H         1 <0>         0.1492
     14 N5         -1.8000   -5.1771   -0.8074 N.3       1 <0>        -0.3215
     15 N6         -1.4284   -6.4901   -1.3097 N.3       1 <0>        -0.6882
     16 S1         -1.7877   -6.7647    1.3991 S.3       1 <0>        -0.0548
     17 C7         -1.7702   -6.4606    3.1874 C.3       1 <0>        -0.1528
     18 C8         -1.7559   -7.7771    3.9207 C.2       1 <0>         0.5426
     19 O1         -1.7573   -8.8180    3.2982 O.2       1 <0>        -0.4847
     20 N7         -1.7415   -7.7977    5.2682 N.am      1 <0>        -0.6703
     21 C9         -1.8503   -9.0149    5.9507 C.ar      1 <0>         0.2092
     22 C10        -2.4678  -10.1004    5.3430 C.ar      1 <0>        -0.1212
     23 C11        -2.5739  -11.3001    6.0185 C.ar      1 <0>        -0.0512
     24 C12        -2.0659  -11.4212    7.3002 C.ar      1 <0>        -0.0572
     25 C13        -1.4503  -10.3414    7.9079 C.ar      1 <0>        -0.0404
     26 C14        -1.3361   -9.1409    7.2342 C.ar      1 <0>        -0.2084
     27 C15        -0.6599   -7.9669    7.8944 C.3       1 <0>         0.5117
     28 F1         -0.2285   -8.3358    9.1731 F         1 <0>        -0.1678
     29 F2          0.4408   -7.5708    7.1271 F         1 <0>        -0.1706
     30 F3         -1.5643   -6.9044    7.9958 F         1 <0>        -0.1763
     31 Cl1        -2.2019  -12.9305    8.1472 Cl        1 <0>        -0.0494
     32 H4         -0.8340   -0.1775   -4.8532 H         1 <0>         0.0815
     33 H5         -0.2854    0.6522   -3.3770 H         1 <0>         0.0812
     34 H6          0.7388   -0.5933   -4.1308 H         1 <0>         0.0820
     35 H7          0.3133   -1.3647   -1.3093 H         1 <0>         0.1800
     36 H8         -2.1321   -7.1766   -1.0827 H         1 <0>         0.3731
     37 H9         -1.2579   -6.4620   -2.3038 H         1 <0>         0.3639
     38 H10        -0.8802   -5.8887    3.4500 H         1 <0>         0.1294
     39 H11        -2.6601   -5.8975    3.4689 H         1 <0>         0.1230
     40 H12        -1.6557   -6.9690    5.7651 H         1 <0>         0.4168
     41 H13        -2.8649  -10.0062    4.3431 H         1 <0>         0.1672
     42 H14        -3.0539  -12.1445    5.5463 H         1 <0>         0.1503
     43 H15        -1.0548  -10.4385    8.9082 H         1 <0>         0.1549
@<TRIPOS>BOND
     1    1    2 1
     2    1   32 1
     3    1   33 1
     4    1   34 1
     5    2    7 1
     6    2    3 2
     7    3    4 1
     8    3   35 1
     9    4    5 1
    10    4    6 1
    11    4    8 1
    12    6    7 2
    13    8    9 1
    14    8   14 1
    15    8   10 1
    16   10   11 2
    17   11   12 1
    18   12   13 1
    19   12   14 1
    20   12   16 1
    21   14   15 1
    22   15   36 1
    23   15   37 1
    24   16   17 1
    25   17   18 1
    26   17   38 1
    27   17   39 1
    28   18   19 2
    29   18   20 am
    30   20   21 1
    31   20   40 1
    32   21   26 ar
    33   21   22 ar
    34   22   23 ar
    35   22   41 1
    36   23   24 ar
    37   23   42 1
    38   24   25 ar
    39   24   31 1
    40   25   26 ar
    41   25   43 1
    42   26   27 1
    43   27   28 1
    44   27   29 1
    45   27   30 1
@<TRIPOS>MOLECULE
ZINC49005115
   59    62     0     0     0
SMALL
USER_CHARGES

@<TRIPOS>ATOM
      1 C1         -6.1152   -0.1056    0.9841 C.3       1 <0>        -0.1251
      2 C2         -6.5648   -0.9795   -0.1884 C.3       1 <0>        -0.1474
      3 C3         -5.4565   -1.9750   -0.5370 C.3       1 <0>         0.1502
      4 H1         -4.8809   -2.2093    0.3585 H         1 <0>         0.0729
      5 C4         -6.0767   -3.2580   -1.0992 C.3       1 <0>        -0.1319
      6 C5         -4.9621   -4.1929   -1.5745 C.3       1 <0>        -0.1217
      7 C6         -4.1646   -3.5129   -2.6898 C.3       1 <0>        -0.1378
      8 C7         -3.5228   -2.2328   -2.1456 C.3       1 <0>         0.0916
      9 N1         -4.5707   -1.3901   -1.5528 N.am      1 <0>        -0.5977
     10 C8         -4.7188   -0.1064   -1.9360 C.2       1 <0>         0.5686
     11 O1         -5.5070    0.6147   -1.3546 O.2       1 <0>        -0.5036
     12 C9         -3.9264    0.4228   -3.0584 C.ar      1 <0>        -0.2029
     13 C10        -3.7324   -0.3463   -4.2159 C.ar      1 <0>         0.1892
     14 N2         -3.0335    0.0985   -5.2289 N.ar      1 <0>        -0.4596
     15 C11        -2.4623    1.3112   -5.2229 C.ar      1 <0>         0.3363
     16 C12        -2.6063    2.1551   -4.0959 C.ar      1 <0>        -0.1741
     17 C13        -3.3606    1.7057   -2.9862 C.ar      1 <0>         0.2811
     18 N3         -3.5300    2.4974   -1.8722 N.pl3     1 <0>        -0.6920
     19 C14        -2.5482    2.5242   -0.8781 C.ar      1 <0>         0.2590
     20 C15        -1.2348    2.1938   -1.1878 C.ar      1 <0>        -0.2031
     21 C16        -0.2670    2.2213   -0.2030 C.ar      1 <0>         0.0206
     22 C17        -0.6041    2.5771    1.0902 C.ar      1 <0>        -0.7170
     23 C18        -1.9106    2.9061    1.4019 C.ar      1 <0>         0.0247
     24 C19        -2.8822    2.8867    0.4207 C.ar      1 <0>        -0.1846
     25 S1          0.6339    2.6108    2.3435 S.o2      1 <0>         2.7032
     26 O2         -0.0396    2.4468    3.5840 O.2       1 <0>        -0.9645
     27 O3          1.6681    1.7348    1.9165 O.2       1 <0>        -0.9637
     28 N4          1.2793    4.1358    2.3533 N.pl3     1 <0>        -1.2491
     29 C20        -2.0041    3.4221   -4.1035 C.ar      1 <0>        -0.0281
     30 C21        -1.2942    3.7930   -5.2139 C.ar      1 <0>        -0.1728
     31 C22        -1.1896    2.9184   -6.2893 C.ar      1 <0>         0.1993
     32 N5         -1.7555    1.7340   -6.2749 N.ar      1 <0>        -0.4667
     33 C23        -0.4048    3.3411   -7.5044 C.3       1 <0>        -0.1139
     34 H2         -6.5650   -0.4747    1.9058 H         1 <0>         0.0395
     35 H3         -5.0292   -0.1429    1.0696 H         1 <0>         0.0448
     36 H4         -6.4309    0.9234    0.8124 H         1 <0>         0.0561
     37 H5         -7.4677   -1.5235    0.0892 H         1 <0>         0.0540
     38 H6         -6.7720   -0.3490   -1.0531 H         1 <0>         0.1179
     39 H7         -6.6588   -3.7519   -0.3212 H         1 <0>         0.0782
     40 H8         -6.7265   -3.0105   -1.9386 H         1 <0>         0.0689
     41 H9         -4.2985   -4.4202   -0.7402 H         1 <0>         0.0664
     42 H10        -5.3997   -5.1169   -1.9524 H         1 <0>         0.0702
     43 H11        -3.3858   -4.1883   -3.0438 H         1 <0>         0.0821
     44 H12        -4.8325   -3.2630   -3.5141 H         1 <0>         0.0699
     45 H13        -2.7874   -2.4886   -1.3827 H         1 <0>         0.0761
     46 H14        -3.0365   -1.6938   -2.9586 H         1 <0>         0.0890
     47 H15        -4.1713   -1.3316   -4.2721 H         1 <0>         0.1761
     48 H16        -4.3308    3.0365   -1.7775 H         1 <0>         0.4256
     49 H17        -0.9710    1.9155   -2.1974 H         1 <0>         0.1271
     50 H18         0.7541    1.9642   -0.4429 H         1 <0>         0.1432
     51 H19        -2.1705    3.1832    2.4129 H         1 <0>         0.1453
     52 H20        -3.9013    3.1488    0.6637 H         1 <0>         0.1380
     53 H21         1.6277    4.5097    3.1778 H         1 <0>         0.4214
     54 H22         1.3090    4.6552    1.5346 H         1 <0>         0.4165
     55 H23        -2.0981    4.0864   -3.2573 H         1 <0>         0.1446
     56 H24        -0.8177    4.7614   -5.2542 H         1 <0>         0.1490
     57 H25         0.6364    3.0406   -7.3871 H         1 <0>         0.0900
     58 H26        -0.8229    2.8644   -8.3909 H         1 <0>         0.0862
     59 H27        -0.4602    4.4242   -7.6140 H         1 <0>         0.0841
@<TRIPOS>BOND
     1    1    2 1
     2    1   34 1
     3    1   35 1
     4    1   36 1
     5    2    3 1
     6    2   37 1
     7    2   38 1
     8    3    4 1
     9    3    9 1
    10    3    5 1
    11    5    6 1
    12    5   39 1
    13    5   40 1
    14    6    7 1
    15    6   41 1
    16    6   42 1
    17    7    8 1
    18    7   43 1
    19    7   44 1
    20    8    9 1
    21    8   45 1
    22    8   46 1
    23    9   10 am
    24   10   11 2
    25   10   12 1
    26   12   17 ar
    27   12   13 ar
    28   13   14 ar
    29   13   47 1
    30   14   15 ar
    31   15   32 ar
    32   15   16 ar
    33   16   17 ar
    34   16   29 ar
    35   17   18 1
    36   18   19 1
    37   18   48 1
    38   19   24 ar
    39   19   20 ar
    40   20   21 ar
    41   20   49 1
    42   21   22 ar
    43   21   50 1
    44   22   23 ar
    45   22   25 1
    46   23   24 ar
    47   23   51 1
    48   24   52 1
    49   25   26 2
    50   25   27 2
    51   25   28 1
    52   28   53 1
    53   28   54 1
    54   29   30 ar
    55   29   55 1
    56   30   31 ar
    57   30   56 1
    58   31   32 ar
    59   31   33 1
    60   33   57 1
    61   33   58 1
    62   33   59 1
@<TRIPOS>MOLECULE
ZINC12070743
   69    71     0     0     0
SMALL
USER_CHARGES
ethyl 2-[[2-(4-isopropylsulfonylphenyl)acetyl]amino]-5,5,7,7-tetramethyl-4,6-dihydrothieno[5,4-c]pyridine-3-carboxylate
@<TRIPOS>ATOM
      1 C1         -3.9333    6.4515   11.4333 C.3       1 <0>        -0.1552
      2 C2         -4.1383    4.9477   11.2397 C.3       1 <0>         0.0589
      3 O1         -2.9049    4.3486   10.7623 O.3       1 <0>        -0.3494
      4 C3         -2.9165    3.0183   10.5394 C.2       1 <0>         0.5231
      5 O2         -3.9307    2.3770   10.7390 O.2       1 <0>        -0.4840
      6 C4         -1.7080    2.3461   10.0572 C.2       1 <0>        -0.2139
      7 C5         -0.7230    1.7990   10.9658 C.2       1 <0>        -0.0314
      8 C6          0.3476    1.2121   10.3822 C.2       1 <0>        -0.2916
      9 S1          0.0537    1.3742    8.6451 S.3       1 <0>         0.3429
     10 C7         -1.4627    2.2112    8.6941 C.2       1 <0>         0.1061
     11 N1         -2.2436    2.6435    7.6339 N.am      1 <0>        -0.6206
     12 C8         -1.8417    2.4219    6.3667 C.2       1 <0>         0.5161
     13 O3         -0.7966    1.8444    6.1542 O.2       1 <0>        -0.4783
     14 C9         -2.6908    2.8920    5.2138 C.3       1 <0>        -0.1023
     15 C10        -2.0224    2.5231    3.9145 C.ar      1 <0>        -0.0291
     16 C11        -2.2950    1.3063    3.3180 C.ar      1 <0>        -0.1216
     17 C12        -1.6825    0.9683    2.1257 C.ar      1 <0>        -0.0198
     18 C13        -0.7978    1.8475    1.5296 C.ar      1 <0>        -0.6492
     19 C14        -0.5212    3.0621    2.1288 C.ar      1 <0>        -0.0183
     20 C15        -1.1370    3.4019    3.3189 C.ar      1 <0>        -0.1219
     21 S2         -0.0172    1.4168    0.0098 S.o2      1 <0>         2.4894
     22 O4          0.0021   -0.0041    0.0020 O.2       1 <0>        -0.9345
     23 O5          1.1953    2.1578    0.0022 O.2       1 <0>        -0.9306
     24 C16        -1.1345    2.0336   -1.2793 C.3       1 <0>        -0.5655
     25 C17        -1.2937    3.5483   -1.1342 C.3       1 <0>        -0.1460
     26 C18        -0.5510    1.7117   -2.6566 C.3       1 <0>        -0.1481
     27 C19         1.5079    0.5831   11.0818 C.3       1 <0>         0.1686
     28 C20        -0.0874    0.5686   13.0041 C.3       1 <0>         0.0649
     29 C21        -0.7962    1.8258   12.4865 C.3       1 <0>        -0.0690
     30 C22        -0.9004   -0.6676   12.6084 C.3       1 <0>        -0.1702
     31 C23        -0.0587    0.6430   14.5422 C.3       1 <0>        -0.1816
     32 C24         1.7757   -0.8022   10.4763 C.3       1 <0>        -0.1782
     33 C25         2.7531    1.4567   10.8386 C.3       1 <0>        -0.1786
     34 H1         -3.1415    6.6193   12.1633 H         1 <0>         0.0682
     35 H2         -3.6531    6.9053   10.4827 H         1 <0>         0.0688
     36 H3         -4.8592    6.9013   11.7917 H         1 <0>         0.0870
     37 H4         -4.9301    4.7800   10.5096 H         1 <0>         0.0747
     38 H5         -4.4186    4.4939   12.1903 H         1 <0>         0.0745
     39 H6         -3.0794    3.1054    7.8039 H         1 <0>         0.4272
     40 H7         -2.8091    3.9742    5.2672 H         1 <0>         0.1238
     41 H8         -3.6702    2.4164    5.2663 H         1 <0>         0.1235
     42 H9         -2.9867    0.6197    3.7833 H         1 <0>         0.1331
     43 H10        -1.8955    0.0176    1.6597 H         1 <0>         0.1454
     44 H11         0.1733    3.7471    1.6653 H         1 <0>         0.1462
     45 H12        -0.9242    4.3528    3.7847 H         1 <0>         0.1335
     46 H13        -2.1080    1.5544   -1.1761 H         1 <0>         0.1397
     47 H14        -1.7093    3.7777   -0.1530 H         1 <0>         0.0687
     48 H15        -0.3201    4.0275   -1.2374 H         1 <0>         0.0791
     49 H16        -1.9650    3.9190   -1.9088 H         1 <0>         0.0832
     50 H17        -0.4376    0.6326   -2.7600 H         1 <0>         0.0753
     51 H18        -1.2224    2.0823   -3.4312 H         1 <0>         0.0881
     52 H19         0.4225    2.1909   -2.7598 H         1 <0>         0.0760
     53 H20        -0.2924    2.7136   12.8668 H         1 <0>         0.1093
     54 H21        -1.8337    1.8172   12.8163 H         1 <0>         0.1185
     55 H22        -0.4396   -1.5578   13.0366 H         1 <0>         0.0832
     56 H23        -1.9185   -0.5687   12.9849 H         1 <0>         0.1048
     57 H24        -0.9216   -0.7561   11.5222 H         1 <0>         0.0824
     58 H25         0.5084    1.5204   14.8531 H         1 <0>         0.0832
     59 H26        -1.0780    0.7160   14.9215 H         1 <0>         0.1072
     60 H27         0.4137   -0.2549   14.9406 H         1 <0>         0.0862
     61 H28         2.0027   -0.6973    9.4154 H         1 <0>         0.1067
     62 H29         2.6221   -1.2637   10.9850 H         1 <0>         0.0918
     63 H30         0.8925   -1.4291   10.5987 H         1 <0>         0.0873
     64 H31         2.5775    2.4576   11.2330 H         1 <0>         0.0862
     65 H32         3.6121    1.0133   11.3423 H         1 <0>         0.0902
     66 H33         2.9510    1.5174    9.7684 H         1 <0>         0.1074
     67 N2          1.3255    0.4632   12.5571 N.4       1 <0>        -0.5087
     68 H34         1.8637    1.2109   13.0104 H         1 <0>         0.4319
     69 H35         1.6904   -0.4494   12.8541 H         1 <0>         0.4354
@<TRIPOS>BOND
     1    1    2 1
     2    1   34 1
     3    1   35 1
     4    1   36 1
     5    2    3 1
     6    2   37 1
     7    2   38 1
     8    3    4 1
     9    4    5 2
    10    4    6 1
    11    6   10 2
    12    6    7 1
    13    7   29 1
    14    7    8 2
    15    8    9 1
    16    8   27 1
    17    9   10 1
    18   10   11 1
    19   11   12 am
    20   11   39 1
    21   12   13 2
    22   12   14 1
    23   14   15 1
    24   14   40 1
    25   14   41 1
    26   15   20 ar
    27   15   16 ar
    28   16   17 ar
    29   16   42 1
    30   17   18 ar
    31   17   43 1
    32   18   19 ar
    33   18   21 1
    34   19   20 ar
    35   19   44 1
    36   20   45 1
    37   21   22 2
    38   21   23 2
    39   21   24 1
    40   24   25 1
    41   24   26 1
    42   24   46 1
    43   25   47 1
    44   25   48 1
    45   25   49 1
    46   26   50 1
    47   26   51 1
    48   26   52 1
    49   27   32 1
    50   27   33 1
    51   27   67 1
    52   28   29 1
    53   28   30 1
    54   28   31 1
    55   28   67 1
    56   29   53 1
    57   29   54 1
    58   30   55 1
    59   30   56 1
    60   30   57 1
    61   31   58 1
    62   31   59 1
    63   31   60 1
    64   32   61 1
    65   32   62 1
    66   32   63 1
    67   33   64 1
    68   33   65 1
    69   33   66 1
    70   67   68 1
    71   67   69 1
@<TRIPOS>MOLECULE
ZINC36001586
   72    74     0     0     0
SMALL
USER_CHARGES

@<TRIPOS>ATOM
      1 C1         -2.2461    0.0518    0.3822 C.3       1 <0>        -0.1591
      2 C2         -1.8439   -1.4026    0.1293 C.3       1 <0>         0.0614
      3 O1         -0.8797   -1.4538   -0.9242 O.3       1 <0>        -0.3231
      4 C3         -0.4179   -2.6728   -1.2733 C.2       1 <0>         0.5425
      5 O2         -0.8240   -3.6650   -0.6977 O.2       1 <0>        -0.5424
      6 C4          0.5382   -2.7972   -2.3083 C.2       1 <0>        -0.2247
      7 C5          1.1137   -3.9864   -2.5880 C.2       1 <0>         0.1985
      8 N1          2.0362   -4.1052   -3.5878 N.am      1 <0>        -0.5374
      9 C6          2.4375   -3.0825   -4.3533 C.2       1 <0>         0.7018
     10 O3          3.2649   -3.2862   -5.2201 O.2       1 <0>        -0.5280
     11 N2          1.9535   -1.8348   -4.1943 N.am      1 <0>        -0.7053
     12 C7          0.9469   -1.6018   -3.1450 C.3       1 <0>         0.2300
     13 H1          0.0505   -1.2002   -3.6176 H         1 <0>         0.1103
     14 C8          1.4880   -0.5468   -2.2149 C.ar      1 <0>        -0.0951
     15 C9          2.7859   -0.6372   -1.7476 C.ar      1 <0>        -0.0979
     16 C10         3.2822    0.3305   -0.8944 C.ar      1 <0>        -0.0705
     17 C11         2.4810    1.3889   -0.5088 C.ar      1 <0>        -0.1635
     18 C12         1.1834    1.4798   -0.9768 C.ar      1 <0>        -0.0696
     19 C13         0.6884    0.5143   -1.8335 C.ar      1 <0>        -0.0755
     20 C14         3.0218    2.4433    0.4221 C.3       1 <0>         0.5049
     21 F1          3.6123    3.4675   -0.3260 F         1 <0>        -0.1719
     22 F2          1.9764    2.9692    1.1888 F         1 <0>        -0.1741
     23 F3          3.9788    1.8723    1.2678 F         1 <0>        -0.1749
     24 C15         2.6201   -5.4256   -3.8365 C.3       1 <0>         0.0483
     25 C16         0.7319   -5.2021   -1.7834 C.3       1 <0>         0.0043
     26 N3         -0.5120   -5.7722   -2.3179 N.4       1 <0>        -0.3506
     27 C17        -0.9971   -6.7817   -1.3794 C.3       1 <0>        -0.0001
     28 C18        -2.5052   -6.8604   -1.4661 C.3       1 <0>        -0.1534
     29 C19        -2.9042   -7.9620   -2.4648 C.3       1 <0>         0.1148
     30 N4         -2.0128   -7.9595   -3.6424 N.am      1 <0>        -0.6381
     31 C20        -1.5725   -6.7351   -4.2788 C.3       1 <0>         0.0963
     32 C21        -0.2597   -6.2463   -3.6244 C.3       1 <0>        -0.0700
     33 C22        -1.5937   -9.1388   -4.1425 C.2       1 <0>         0.6990
     34 O4         -2.0207  -10.1803   -3.6829 O.2       1 <0>        -0.5585
     35 N5         -0.7011   -9.1635   -5.1521 N.am      1 <0>        -0.7390
     36 C23        -0.3291  -10.4388   -5.7698 C.3       1 <0>         0.1497
     37 C24        -1.3464  -10.7956   -6.8554 C.3       1 <0>        -0.1681
     38 C25         1.0620  -10.3161   -6.3948 C.3       1 <0>        -0.1629
     39 H2         -1.3657    0.6279    0.6671 H         1 <0>         0.0711
     40 H3         -2.6774    0.4727   -0.5260 H         1 <0>         0.0708
     41 H4         -2.9815    0.0909    1.1858 H         1 <0>         0.0877
     42 H5         -1.4125   -1.8235    1.0375 H         1 <0>         0.0754
     43 H6         -2.7242   -1.9787   -0.1556 H         1 <0>         0.0745
     44 H7          2.2585   -1.1081   -4.7600 H         1 <0>         0.4441
     45 H8          3.4119   -1.4641   -2.0488 H         1 <0>         0.1249
     46 H9          4.2960    0.2595   -0.5287 H         1 <0>         0.1396
     47 H10         0.5573    2.3065   -0.6753 H         1 <0>         0.1423
     48 H11        -0.3241    0.5873   -2.2021 H         1 <0>         0.1415
     49 H12         1.9869   -5.9780   -4.5308 H         1 <0>         0.0819
     50 H13         3.6146   -5.3079   -4.2668 H         1 <0>         0.1193
     51 H14         2.6932   -5.9734   -2.8970 H         1 <0>         0.0896
     52 H15         1.5279   -5.9441   -1.8461 H         1 <0>         0.1494
     53 H16         0.5826   -4.9165   -0.7421 H         1 <0>         0.1855
     54 H17        -0.5669   -7.7507   -1.6327 H         1 <0>         0.1320
     55 H18        -0.7047   -6.5068   -0.3660 H         1 <0>         0.1430
     56 H19        -2.9140   -7.0954   -0.4834 H         1 <0>         0.1296
     57 H20        -2.9003   -5.9026   -1.8046 H         1 <0>         0.0887
     58 H21        -2.8421   -8.9319   -1.9713 H         1 <0>         0.1116
     59 H22        -3.9301   -7.7934   -2.7924 H         1 <0>         0.0862
     60 H23        -1.4016   -6.9192   -5.3394 H         1 <0>         0.1212
     61 H24        -2.3410   -5.9706   -4.1641 H         1 <0>         0.1069
     62 H25         0.1652   -5.4417   -4.2246 H         1 <0>         0.1374
     63 H26         0.4499   -7.0724   -3.5780 H         1 <0>         0.1355
     64 H27        -0.3051   -8.3370   -5.4697 H         1 <0>         0.3902
     65 H28        -0.3186  -11.2209   -5.0105 H         1 <0>         0.0947
     66 H29        -1.0696  -11.7445   -7.3150 H         1 <0>         0.0731
     67 H30        -2.3374  -10.8831   -6.4101 H         1 <0>         0.0608
     68 H31        -1.3569  -10.0136   -7.6146 H         1 <0>         0.0574
     69 H32         1.7867  -10.0619   -5.6214 H         1 <0>         0.0607
     70 H33         1.3388  -11.2649   -6.8544 H         1 <0>         0.0815
     71 H34         1.0515   -9.5341   -7.1541 H         1 <0>         0.0618
     72 H35        -1.1998   -5.0361   -2.3736 H         1 <0>         0.4217
@<TRIPOS>BOND
     1    1    2 1
     2    1   39 1
     3    1   40 1
     4    1   41 1
     5    2    3 1
     6    2   42 1
     7    2   43 1
     8    3    4 1
     9    4    5 2
    10    4    6 1
    11    6   12 1
    12    6    7 2
    13    7    8 1
    14    7   25 1
    15    8    9 am
    16    8   24 1
    17    9   10 2
    18    9   11 am
    19   11   12 1
    20   11   44 1
    21   12   13 1
    22   12   14 1
    23   14   19 ar
    24   14   15 ar
    25   15   16 ar
    26   15   45 1
    27   16   17 ar
    28   16   46 1
    29   17   18 ar
    30   17   20 1
    31   18   19 ar
    32   18   47 1
    33   19   48 1
    34   20   21 1
    35   20   22 1
    36   20   23 1
    37   24   49 1
    38   24   50 1
    39   24   51 1
    40   25   26 1
    41   25   52 1
    42   25   53 1
    43   26   32 1
    44   26   27 1
    45   26   72 1
    46   27   28 1
    47   27   54 1
    48   27   55 1
    49   28   29 1
    50   28   56 1
    51   28   57 1
    52   29   30 1
    53   29   58 1
    54   29   59 1
    55   30   31 1
    56   30   33 am
    57   31   32 1
    58   31   60 1
    59   31   61 1
    60   32   62 1
    61   32   63 1
    62   33   34 2
    63   33   35 am
    64   35   36 1
    65   35   64 1
    66   36   37 1
    67   36   38 1
    68   36   65 1
    69   37   66 1
    70   37   67 1
    71   37   68 1
    72   38   69 1
    73   38   70 1
    74   38   71 1
@<TRIPOS>MOLECULE
ZINC39656845
   67    70     0     0     0
SMALL
USER_CHARGES

@<TRIPOS>ATOM
      1 C1          2.8807    1.6988   -0.3315 C.3       1 <0>        -0.1578
      2 C2          1.7944    1.5508    0.7356 C.3       1 <0>         0.1827
      3 H1          0.9431    1.0150    0.3157 H         1 <0>         0.1030
      4 C3          1.3516    2.9163    1.1944 C.ar      1 <0>        -0.0849
      5 C4          2.1138    3.6187    2.1092 C.ar      1 <0>        -0.1124
      6 C5          1.7084    4.8713    2.5300 C.ar      1 <0>        -0.0863
      7 C6          0.5398    5.4221    2.0355 C.ar      1 <0>        -0.0868
      8 C7         -0.2225    4.7189    1.1202 C.ar      1 <0>        -0.0810
      9 C8          0.1864    3.4686    0.6961 C.ar      1 <0>        -0.0980
     10 Br1        -0.0158    7.1355    2.6112 Br        1 <0>        -0.0365
     11 N1          2.3286    0.8020    1.8758 N.am      1 <0>        -0.7267
     12 C9          2.3172   -0.5456    1.8620 C.2       1 <0>         0.5156
     13 O1          1.8647   -1.1384    0.9055 O.2       1 <0>        -0.5058
     14 C10         2.8668   -1.3159    3.0349 C.3       1 <0>        -0.1145
     15 H2          2.6763   -0.7784    3.9638 H         1 <0>         0.1182
     16 C11         2.2411   -2.7275    3.0922 C.3       1 <0>         0.1202
     17 N2          3.2119   -3.5963    2.3858 N.am      1 <0>        -0.6150
     18 C12         4.5383   -3.0916    2.8147 C.3       1 <0>         0.0923
     19 C13         4.3748   -1.5592    2.8565 C.3       1 <0>        -0.0742
     20 C14         5.1472   -0.9775    4.0366 C.3       1 <0>        -0.1349
     21 C15         6.6478   -1.1799    3.8084 C.3       1 <0>        -0.0103
     22 N3          7.0487   -0.5177    2.5612 N.4       1 <0>        -0.5049
     23 C16         6.3707   -1.1457    1.4206 C.3       1 <0>        -0.0098
     24 C17         4.8584   -0.9418    1.5478 C.3       1 <0>        -0.1497
     25 C18         2.9485   -4.6153    1.5440 C.2       1 <0>         0.5882
     26 O2          1.8056   -4.8315    1.1900 O.2       1 <0>        -0.5088
     27 C19         4.0475   -5.4689    1.0518 C.ar      1 <0>        -0.1324
     28 C20         5.2533   -5.5321    1.7545 C.ar      1 <0>        -0.1030
     29 C21         6.2782   -6.3297    1.2941 C.ar      1 <0>        -0.1865
     30 C22         6.1161   -7.0717    0.1319 C.ar      1 <0>         0.1317
     31 C23         4.9157   -7.0130   -0.5744 C.ar      1 <0>         0.1015
     32 C24         3.8821   -6.2200   -0.1148 C.ar      1 <0>        -0.1147
     33 O3          4.7603   -7.7403   -1.7130 O.3       1 <0>        -0.3006
     34 C25         3.5041   -7.6321   -2.3856 C.3       1 <0>         0.0214
     35 O4          7.1293   -7.8560   -0.3181 O.3       1 <0>        -0.2975
     36 C26         8.3317   -7.8689    0.4539 C.3       1 <0>         0.0236
     37 H3          3.2010    0.7111   -0.6633 H         1 <0>         0.0647
     38 H4          2.4833    2.2559   -1.1798 H         1 <0>         0.0750
     39 H5          3.7320    2.2347    0.0884 H         1 <0>         0.0569
     40 H6          3.0260    3.1884    2.4955 H         1 <0>         0.1235
     41 H7          2.3037    5.4198    3.2449 H         1 <0>         0.1357
     42 H8         -1.1350    5.1486    0.7339 H         1 <0>         0.1395
     43 H9         -0.4066    2.9212   -0.0217 H         1 <0>         0.1367
     44 H10         2.6905    1.2761    2.6408 H         1 <0>         0.3974
     45 H11         2.1251   -3.0501    4.1269 H         1 <0>         0.0886
     46 H12         1.2790   -2.7379    2.5799 H         1 <0>         0.1039
     47 H13         4.7889   -3.4736    3.8043 H         1 <0>         0.0892
     48 H14         5.3043   -3.3731    2.0921 H         1 <0>         0.0944
     49 H15         4.9326    0.0877    4.1224 H         1 <0>         0.0979
     50 H16         4.8470   -1.4848    4.9535 H         1 <0>         0.1234
     51 H17         7.2030   -0.7503    4.6422 H         1 <0>         0.1410
     52 H18         6.8640   -2.2460    3.7392 H         1 <0>         0.1326
     53 H19         6.7972    0.4585    2.6043 H         1 <0>         0.4282
     54 H20         6.7218   -0.6910    0.4943 H         1 <0>         0.1392
     55 H21         6.5935   -2.2126    1.4083 H         1 <0>         0.1331
     56 H22         4.3546   -1.4238    0.7100 H         1 <0>         0.1229
     57 H23         4.6334    0.1247    1.5437 H         1 <0>         0.0988
     58 H24         5.3823   -4.9554    2.6585 H         1 <0>         0.1354
     59 H25         7.2098   -6.3776    1.8383 H         1 <0>         0.1422
     60 H26         2.9498   -6.1773   -0.6583 H         1 <0>         0.1502
     61 H27         2.7057   -7.9578   -1.7188 H         1 <0>         0.0609
     62 H28         3.3351   -6.5950   -2.6752 H         1 <0>         0.0581
     63 H29         3.5132   -8.2611   -3.2758 H         1 <0>         0.1086
     64 H30         8.7421   -6.8604    0.5040 H         1 <0>         0.0553
     65 H31         8.1128   -8.2226    1.4615 H         1 <0>         0.0595
     66 H32         9.0573   -8.5336   -0.0148 H         1 <0>         0.1076
     67 H33         8.0474   -0.6002    2.4441 H         1 <0>         0.4343
@<TRIPOS>BOND
     1    1    2 1
     2    1   37 1
     3    1   38 1
     4    1   39 1
     5    2    3 1
     6    2    4 1
     7    2   11 1
     8    4    9 ar
     9    4    5 ar
    10    5    6 ar
    11    5   40 1
    12    6    7 ar
    13    6   41 1
    14    7    8 ar
    15    7   10 1
    16    8    9 ar
    17    8   42 1
    18    9   43 1
    19   11   12 am
    20   11   44 1
    21   12   13 2
    22   12   14 1
    23   14   15 1
    24   14   19 1
    25   14   16 1
    26   16   17 1
    27   16   45 1
    28   16   46 1
    29   17   18 1
    30   17   25 am
    31   18   19 1
    32   18   47 1
    33   18   48 1
    34   19   24 1
    35   19   20 1
    36   20   21 1
    37   20   49 1
    38   20   50 1
    39   21   22 1
    40   21   51 1
    41   21   52 1
    42   22   23 1
    43   22   53 1
    44   22   67 1
    45   23   24 1
    46   23   54 1
    47   23   55 1
    48   24   56 1
    49   24   57 1
    50   25   26 2
    51   25   27 1
    52   27   32 ar
    53   27   28 ar
    54   28   29 ar
    55   28   58 1
    56   29   30 ar
    57   29   59 1
    58   30   31 ar
    59   30   35 1
    60   31   32 ar
    61   31   33 1
    62   32   60 1
    63   33   34 1
    64   34   61 1
    65   34   62 1
    66   34   63 1
    67   35   36 1
    68   36   64 1
    69   36   65 1
    70   36   66 1
@<TRIPOS>MOLECULE
ZINC39678343
   83    87     0     0     0
SMALL
USER_CHARGES

@<TRIPOS>ATOM
      1 C1          0.3447    0.0434    0.4936 C.3       1 <0>        -0.0700
      2 C2          0.0382   -0.7064   -0.7772 C.2       1 <0>         0.0223
      3 C3         -0.0292   -2.0944   -0.9171 C.2       1 <0>        -0.1887
      4 C4         -0.3366   -2.3142   -2.2486 C.2       1 <0>        -0.0412
      5 N1         -0.4358   -1.0803   -2.8262 N.pl3     1 <0>        -0.2382
      6 N2         -0.2177   -0.1724   -1.9442 N.2       1 <0>        -0.2607
      7 C5         -0.7488   -0.8305   -4.2354 C.3       1 <0>         0.1752
      8 C6         -2.0822   -1.4933   -4.5870 C.3       1 <0>        -0.1725
      9 C7         -0.8496    0.6771   -4.4760 C.3       1 <0>        -0.1474
     10 C8          0.3585   -1.4144   -5.1151 C.3       1 <0>        -0.1685
     11 C9         -0.5192   -3.6162   -2.9097 C.2       1 <0>         0.6237
     12 O1         -0.6438   -3.6724   -4.1183 O.2       1 <0>        -0.5193
     13 N3         -0.5482   -4.7464   -2.1760 N.am      1 <0>        -0.6049
     14 C10        -0.5593   -4.8705   -0.6994 C.3       1 <0>         0.0983
     15 C11        -1.5342   -6.0346   -0.4129 C.3       1 <0>        -0.1146
     16 H1         -1.1748   -6.6333    0.4241 H         1 <0>         0.1182
     17 C12        -1.5395   -6.8689   -1.7048 C.3       1 <0>        -0.0728
     18 C13        -0.5826   -6.1460   -2.6640 C.3       1 <0>         0.1107
     19 C14        -1.0389   -8.2823   -1.4232 C.3       1 <0>        -0.1338
     20 C15        -1.1083   -9.1092   -2.7101 C.3       1 <0>        -0.0101
     21 N4         -2.4929   -9.1469   -3.1959 N.4       1 <0>        -0.5045
     22 C16        -2.9354   -7.7933   -3.5522 C.3       1 <0>        -0.0091
     23 C17        -2.9433   -6.9108   -2.3008 C.3       1 <0>        -0.1471
     24 C18        -2.9144   -5.5038   -0.1226 C.2       1 <0>         0.5143
     25 O2         -3.2302   -4.3959   -0.5020 O.2       1 <0>        -0.5124
     26 N5         -3.7978   -6.2601    0.5586 N.am      1 <0>        -0.7187
     27 C19        -5.1698   -5.7855    0.7555 C.3       1 <0>         0.1737
     28 C20        -5.9125   -6.7505    1.6434 C.ar      1 <0>        -0.1283
     29 C21        -6.8211   -7.6349    1.0957 C.ar      1 <0>        -0.0990
     30 C22        -7.5033   -8.5202    1.9097 C.ar      1 <0>        -0.1256
     31 C23        -7.2783   -8.5238    3.2743 C.ar      1 <0>        -0.0995
     32 C24        -6.3710   -7.6427    3.8284 C.ar      1 <0>        -0.1257
     33 C25        -5.6799   -6.7553    3.0127 C.ar      1 <0>         0.1949
     34 N6         -4.7575   -5.8663    3.5692 N.pl3     1 <0>        -0.6766
     35 C26        -5.1685   -4.5130    3.9672 C.3       1 <0>         0.1457
     36 C27        -4.7674   -4.2854    5.4280 C.3       1 <0>        -0.1377
     37 C28        -3.2709   -4.5612    5.5908 C.3       1 <0>        -0.1159
     38 C29        -2.9770   -6.0193    5.2307 C.3       1 <0>        -0.1392
     39 C30        -3.3592   -6.2686    3.7732 C.3       1 <0>         0.1531
     40 H2         -0.5876    0.3200    0.9861 H         1 <0>         0.0746
     41 H3          0.9319   -0.5912    1.1573 H         1 <0>         0.0759
     42 H4          0.9114    0.9438    0.2565 H         1 <0>         0.0745
     43 H5          0.1260   -2.8382   -0.1496 H         1 <0>         0.1617
     44 H6         -2.8832   -1.0236   -4.0160 H         1 <0>         0.0557
     45 H7         -2.2775   -1.3740   -5.6527 H         1 <0>         0.0789
     46 H8         -2.0360   -2.5546   -4.3426 H         1 <0>         0.0931
     47 H9          0.1169    1.1416   -4.2808 H         1 <0>         0.0702
     48 H10        -1.1390    0.8614   -5.5106 H         1 <0>         0.0778
     49 H11        -1.5986    1.1023   -3.8080 H         1 <0>         0.0693
     50 H12         0.5450   -2.4486   -4.8257 H         1 <0>         0.0924
     51 H13         0.0491   -1.3795   -6.1597 H         1 <0>         0.0789
     52 H14         1.2703   -0.8311   -4.9865 H         1 <0>         0.0569
     53 H15         0.4379   -5.1105   -0.3307 H         1 <0>         0.0920
     54 H16        -0.9227   -3.9496   -0.2433 H         1 <0>         0.1162
     55 H17        -0.9665   -6.1841   -3.6834 H         1 <0>         0.0908
     56 H18         0.4111   -6.5910   -2.6138 H         1 <0>         0.0877
     57 H19        -0.0076   -8.2400   -1.0729 H         1 <0>         0.1227
     58 H20        -1.6645   -8.7444   -0.6595 H         1 <0>         0.0979
     59 H21        -0.4698   -8.6555   -3.4681 H         1 <0>         0.1330
     60 H22        -0.7666  -10.1244   -2.5082 H         1 <0>         0.1403
     61 H23        -2.5466   -9.7418   -4.0090 H         1 <0>         0.4342
     62 H24        -2.2534   -7.3709   -4.2901 H         1 <0>         0.1343
     63 H25        -3.9406   -7.8384   -3.9711 H         1 <0>         0.1381
     64 H26        -3.6373   -7.3237   -1.5687 H         1 <0>         0.0987
     65 H27        -3.2549   -5.9014   -2.5694 H         1 <0>         0.1203
     66 H28        -3.5252   -7.1187    0.9184 H         1 <0>         0.3969
     67 H29        -5.1501   -4.8018    1.2244 H         1 <0>         0.0828
     68 H30        -5.6730   -5.7183   -0.2090 H         1 <0>         0.0679
     69 H31        -6.9992   -7.6347    0.0305 H         1 <0>         0.1202
     70 H32        -8.2138   -9.2102    1.4789 H         1 <0>         0.1248
     71 H33        -7.8131   -9.2164    3.9073 H         1 <0>         0.1260
     72 H34        -6.1960   -7.6458    4.8941 H         1 <0>         0.1248
     73 H35        -4.6714   -3.7788    3.3331 H         1 <0>         0.0509
     74 H36        -6.2493   -4.4146    3.8654 H         1 <0>         0.0678
     75 H37        -4.9796   -3.2533    5.7070 H         1 <0>         0.0699
     76 H38        -5.3337   -4.9602    6.0701 H         1 <0>         0.0642
     77 H39        -2.7064   -3.9031    4.9302 H         1 <0>         0.0608
     78 H40        -2.9779   -4.3762    6.6243 H         1 <0>         0.0628
     79 H41        -1.9149   -6.2213    5.3693 H         1 <0>         0.0677
     80 H42        -3.5601   -6.6777    5.8746 H         1 <0>         0.0640
     81 H43        -3.2466   -7.3281    3.5436 H         1 <0>         0.0610
     82 H44        -2.7113   -5.6808    3.1231 H         1 <0>         0.0459
     83 H45        -3.0919   -9.5155   -2.4724 H         1 <0>         0.4277
@<TRIPOS>BOND
     1    1    2 1
     2    1   40 1
     3    1   41 1
     4    1   42 1
     5    2    6 2
     6    2    3 1
     7    3    4 2
     8    3   43 1
     9    4    5 1
    10    4   11 1
    11    5    6 1
    12    5    7 1
    13    7    8 1
    14    7    9 1
    15    7   10 1
    16    8   44 1
    17    8   45 1
    18    8   46 1
    19    9   47 1
    20    9   48 1
    21    9   49 1
    22   10   50 1
    23   10   51 1
    24   10   52 1
    25   11   12 2
    26   11   13 am
    27   13   18 1
    28   13   14 1
    29   14   15 1
    30   14   53 1
    31   14   54 1
    32   15   16 1
    33   15   17 1
    34   15   24 1
    35   17   23 1
    36   17   18 1
    37   17   19 1
    38   18   55 1
    39   18   56 1
    40   19   20 1
    41   19   57 1
    42   19   58 1
    43   20   21 1
    44   20   59 1
    45   20   60 1
    46   21   22 1
    47   21   61 1
    48   21   83 1
    49   22   23 1
    50   22   62 1
    51   22   63 1
    52   23   64 1
    53   23   65 1
    54   24   25 2
    55   24   26 am
    56   26   27 1
    57   26   66 1
    58   27   28 1
    59   27   67 1
    60   27   68 1
    61   28   33 ar
    62   28   29 ar
    63   29   30 ar
    64   29   69 1
    65   30   31 ar
    66   30   70 1
    67   31   32 ar
    68   31   71 1
    69   32   33 ar
    70   32   72 1
    71   33   34 1
    72   34   39 1
    73   34   35 1
    74   35   36 1
    75   35   73 1
    76   35   74 1
    77   36   37 1
    78   36   75 1
    79   36   76 1
    80   37   38 1
    81   37   77 1
    82   37   78 1
    83   38   39 1
    84   38   79 1
    85   38   80 1
    86   39   81 1
    87   39   82 1
@<TRIPOS>MOLECULE
ZINC49504547
   77    80     0     0     0
SMALL
USER_CHARGES

@<TRIPOS>ATOM
      1 C1          0.8597   -0.9869   -1.9013 C.3       1 <0>        -0.1477
      2 C2          0.0969   -2.2962   -2.1128 C.3       1 <0>        -0.1130
      3 C3          0.9144   -3.4597   -1.5482 C.3       1 <0>        -0.1366
      4 C4         -1.2308   -2.2243   -1.4034 C.2       1 <0>         0.5218
      5 O1         -1.3794   -2.7821   -0.3367 O.2       1 <0>        -0.5149
      6 N1         -2.2530   -1.5401   -1.9543 N.am      1 <0>        -0.5516
      7 C5         -2.1020   -0.9020   -3.2692 C.3       1 <0>         0.0940
      8 C6         -2.7030    0.5067   -3.1778 C.3       1 <0>        -0.1370
      9 C7         -4.1983    0.3878   -2.8845 C.3       1 <0>        -0.0794
     10 C8         -4.4335   -0.5102   -1.6983 C.ar      1 <0>        -0.1183
     11 C9         -3.4799   -1.4303   -1.2849 C.ar      1 <0>         0.1742
     12 C10        -3.7293   -2.2522   -0.1939 C.ar      1 <0>        -0.1743
     13 C11        -4.9361   -2.1571    0.4845 C.ar      1 <0>         0.1463
     14 C12        -5.8907   -1.2375    0.0674 C.ar      1 <0>        -0.1350
     15 C13        -5.6344   -0.4134   -1.0142 C.ar      1 <0>        -0.0809
     16 N2         -5.1905   -2.9831    1.5823 N.am      1 <0>        -0.6324
     17 C14        -6.4433   -3.4183    1.8222 C.2       1 <0>         0.5079
     18 O2         -7.3343   -3.1651    1.0379 O.2       1 <0>        -0.4958
     19 C15        -6.7352   -4.2123    3.0530 C.2       1 <0>         0.5195
     20 O3         -5.8443   -4.4656    3.8372 O.2       1 <0>        -0.5003
     21 N3         -7.9880   -4.6475    3.2929 N.am      1 <0>        -0.6977
     22 C16        -8.2743   -5.4263    4.5002 C.3       1 <0>         0.1044
     23 C17        -9.7325   -5.8889    4.4749 C.3       1 <0>         0.0824
     24 H1         -9.9241   -6.4360    3.5518 H         1 <0>         0.1458
     25 C18       -10.6415   -4.6890    4.5455 C.ar      1 <0>        -0.2180
     26 C19       -10.8858   -4.0793    5.7625 C.ar      1 <0>        -0.0632
     27 C20       -11.7183   -2.9795    5.8308 C.ar      1 <0>        -0.1848
     28 C21       -12.3104   -2.4857    4.6752 C.ar      1 <0>         0.2460
     29 C22       -12.0627   -3.1005    3.4544 C.ar      1 <0>        -0.1866
     30 C23       -11.2248   -4.1966    3.3925 C.ar      1 <0>        -0.0366
     31 N4        -13.1532   -1.3739    4.7408 N.pl3     1 <0>        -0.6229
     32 C24       -13.4136   -0.7270    6.0292 C.3       1 <0>         0.0849
     33 C25       -13.7768   -0.8545    3.5211 C.3       1 <0>         0.0812
     34 N5         -9.9883   -6.7653    5.6257 N.4       1 <0>        -0.3883
     35 C26       -11.3666   -7.3144    5.5551 C.3       1 <0>         0.0018
     36 C27       -11.2888   -8.5830    6.4411 C.3       1 <0>        -0.1452
     37 C28        -9.8810   -9.1388    6.1262 C.3       1 <0>        -0.1427
     38 C29        -9.0854   -7.9361    5.5858 C.3       1 <0>        -0.0158
     39 H2          1.8517   -1.0685   -2.3455 H         1 <0>         0.0762
     40 H3          0.3160   -0.1691   -2.3742 H         1 <0>         0.0625
     41 H4          0.9549   -0.7904   -0.8334 H         1 <0>         0.0645
     42 H5         -0.0687   -2.4521   -3.1788 H         1 <0>         0.0979
     43 H6          1.0800   -3.3039   -0.4822 H         1 <0>         0.0681
     44 H7          0.3709   -4.3925   -1.6989 H         1 <0>         0.0596
     45 H8          1.8747   -3.5117   -2.0613 H         1 <0>         0.0683
     46 H9         -1.0454   -0.8366   -3.5287 H         1 <0>         0.1011
     47 H10        -2.6332   -1.4818   -4.0241 H         1 <0>         0.0817
     48 H11        -2.2162    1.0601   -2.3747 H         1 <0>         0.0750
     49 H12        -2.5568    1.0281   -4.1238 H         1 <0>         0.0908
     50 H13        -4.6031    1.3773   -2.6723 H         1 <0>         0.0840
     51 H14        -4.7039   -0.0278   -3.7561 H         1 <0>         0.0811
     52 H15        -2.9844   -2.9656    0.1265 H         1 <0>         0.1816
     53 H16        -6.8307   -1.1596    0.5935 H         1 <0>         0.1321
     54 H17        -6.3790    0.3000   -1.3353 H         1 <0>         0.1324
     55 H18        -4.4655   -3.2433    2.1719 H         1 <0>         0.4248
     56 H19        -8.7001   -4.4451    2.6661 H         1 <0>         0.4189
     57 H20        -7.6179   -6.2958    4.5359 H         1 <0>         0.0965
     58 H21        -8.1049   -4.8068    5.3809 H         1 <0>         0.0939
     59 H22       -10.4255   -4.4640    6.6605 H         1 <0>         0.1157
     60 H23       -11.9090   -2.5041    6.7815 H         1 <0>         0.1326
     61 H24       -12.5218   -2.7194    2.5542 H         1 <0>         0.1362
     62 H25       -11.0283   -4.6723    2.4430 H         1 <0>         0.1310
     63 H26       -12.4747   -0.3712    6.4534 H         1 <0>         0.0612
     64 H27       -14.0888    0.1161    5.8826 H         1 <0>         0.0832
     65 H28       -13.8711   -1.4447    6.7102 H         1 <0>         0.0610
     66 H29       -14.7376   -1.3455    3.3668 H         1 <0>         0.0590
     67 H30       -13.9297    0.2202    3.6205 H         1 <0>         0.0771
     68 H31       -13.1269   -1.0516    2.6685 H         1 <0>         0.0739
     69 H32       -12.0852   -6.6036    5.9631 H         1 <0>         0.1358
     70 H33       -11.6240   -7.5770    4.5290 H         1 <0>         0.1343
     71 H34       -11.3734   -8.3224    7.4961 H         1 <0>         0.0979
     72 H35       -12.0590   -9.2999    6.1568 H         1 <0>         0.1174
     73 H36        -9.4148   -9.5241    7.0330 H         1 <0>         0.1060
     74 H37        -9.9437   -9.9214    5.3701 H         1 <0>         0.1046
     75 H38        -8.7724   -8.1288    4.5596 H         1 <0>         0.1323
     76 H39        -8.2139   -7.7546    6.2147 H         1 <0>         0.1349
     77 H40        -9.8594   -6.2558    6.4870 H         1 <0>         0.4239
@<TRIPOS>BOND
     1    1    2 1
     2    1   39 1
     3    1   40 1
     4    1   41 1
     5    2    3 1
     6    2    4 1
     7    2   42 1
     8    3   43 1
     9    3   44 1
    10    3   45 1
    11    4    5 2
    12    4    6 am
    13    6   11 1
    14    6    7 1
    15    7    8 1
    16    7   46 1
    17    7   47 1
    18    8    9 1
    19    8   48 1
    20    8   49 1
    21    9   10 1
    22    9   50 1
    23    9   51 1
    24   10   15 ar
    25   10   11 ar
    26   11   12 ar
    27   12   13 ar
    28   12   52 1
    29   13   14 ar
    30   13   16 1
    31   14   15 ar
    32   14   53 1
    33   15   54 1
    34   16   17 am
    35   16   55 1
    36   17   18 2
    37   17   19 1
    38   19   20 2
    39   19   21 am
    40   21   22 1
    41   21   56 1
    42   22   23 1
    43   22   57 1
    44   22   58 1
    45   23   24 1
    46   23   25 1
    47   23   34 1
    48   25   30 ar
    49   25   26 ar
    50   26   27 ar
    51   26   59 1
    52   27   28 ar
    53   27   60 1
    54   28   29 ar
    55   28   31 1
    56   29   30 ar
    57   29   61 1
    58   30   62 1
    59   31   32 1
    60   31   33 1
    61   32   63 1
    62   32   64 1
    63   32   65 1
    64   33   66 1
    65   33   67 1
    66   33   68 1
    67   34   38 1
    68   34   35 1
    69   34   77 1
    70   35   36 1
    71   35   69 1
    72   35   70 1
    73   36   37 1
    74   36   71 1
    75   36   72 1
    76   37   38 1
    77   37   73 1
    78   37   74 1
    79   38   75 1
    80   38   76 1
@<TRIPOS>MOLECULE
ZINC00036132
   22    23     0     0     0
SMALL
USER_CHARGES
5-[(4-bromophenyl)methyl]-1,3,4-thiadiazol-2-amine
@<TRIPOS>ATOM
      1 C1         -5.7624    3.9941    2.1220 C.ar      1 <0>        -0.0945
      2 C2         -6.0771    4.3115    3.4299 C.ar      1 <0>        -0.0897
      3 C3         -5.3855    5.3155    4.0833 C.ar      1 <0>        -0.0877
      4 C4         -4.3757    5.9979    3.4292 C.ar      1 <0>        -0.0904
      5 C5         -4.0581    5.6763    2.1230 C.ar      1 <0>        -0.1031
      6 C6         -4.7496    4.6728    1.4703 C.ar      1 <0>        -0.0738
      7 C7         -4.4033    4.3228    0.0460 C.3       1 <0>         0.0212
      8 C8         -3.3423    3.2527    0.0354 C.2       1 <0>         0.0466
      9 N1         -3.4631    1.9407    0.0294 N.2       1 <0>        -0.2351
     10 N2         -2.4621    1.1735    0.0205 N.2       1 <0>        -0.3579
     11 C9         -1.2215    1.6429    0.0168 C.2       1 <0>         0.3396
     12 S1         -1.5580    3.4015    0.0353 S.3       1 <0>        -0.0537
     13 N3         -0.0111    0.9658    0.0074 N.pl3     1 <0>        -0.7840
     14 Br1        -5.8200    5.7546    5.8706 Br        1 <0>        -0.0486
     15 H1         -6.3052    3.2130    1.6103 H         1 <0>         0.1375
     16 H2         -6.8654    3.7782    3.9404 H         1 <0>         0.1355
     17 H3         -3.8351    6.7816    3.9391 H         1 <0>         0.1348
     18 H4         -3.2694    6.2087    1.6123 H         1 <0>         0.1327
     19 H5         -4.0298    5.2099   -0.4656 H         1 <0>         0.1062
     20 H6         -5.2938    3.9566   -0.4649 H         1 <0>         0.1170
     21 H7          0.0021   -0.0041    0.0020 H         1 <0>         0.4232
     22 H8          0.8223    1.4622    0.0021 H         1 <0>         0.4239
@<TRIPOS>BOND
     1    1    6 ar
     2    1    2 ar
     3    1   15 1
     4    2    3 ar
     5    2   16 1
     6    3    4 ar
     7    3   14 1
     8    4    5 ar
     9    4   17 1
    10    5    6 ar
    11    5   18 1
    12    6    7 1
    13    7    8 1
    14    7   19 1
    15    7   20 1
    16    8   12 1
    17    8    9 2
    18    9   10 1
    19   10   11 2
    20   11   12 1
    21   11   13 1
    22   13   21 1
    23   13   22 1
@<TRIPOS>MOLECULE
ZINC27646172
   50    53     0     0     0
SMALL
USER_CHARGES
(8S,9S,10R,11S,12S,13S,14S,17S)-11,17-dihydroxy-10,12-dimethyl-2,6,7,8,9,11,12,13,14,15,16,17-dodecahydro-1H-cyclopenta[a]phenanthren-3-one
@<TRIPOS>ATOM
      1 C1         -2.4791   -0.1090    0.1610 C.3       1 <0>        -0.1372
      2 C2         -1.1560   -0.7117    0.6417 C.3       1 <0>        -0.0606
      3 H1         -1.0431   -1.7560    0.3151 H         1 <0>         0.0613
      4 C3          0.0021   -0.0041    0.0020 C.3       1 <0>        -0.0719
      5 H2         -0.1522   -0.3454   -1.0323 H         1 <0>         0.0697
      6 C4          1.3635   -0.4163    0.5778 C.3       1 <0>        -0.0786
      7 H3          1.6200   -1.4515    0.3085 H         1 <0>         0.0779
      8 C5          2.3154    0.6845    0.0386 C.3       1 <0>        -0.1178
      9 C6          1.4611    1.9668   -0.0013 C.3       1 <0>        -0.1482
     10 C7         -0.0186    1.5196    0.0104 C.3       1 <0>         0.1268
     11 H4         -0.6436    1.9022   -0.8100 H         1 <0>         0.0421
     12 O1         -0.6625    2.0717    1.1548 O.3       1 <0>        -0.5592
     13 C8          1.3742   -0.3195    2.1115 C.3       1 <0>        -0.0662
     14 H5          1.2443    0.7194    2.4488 H         1 <0>         0.0937
     15 C9          2.7158   -0.9183    2.5653 C.3       1 <0>        -0.1179
     16 C10         2.8375   -0.9233    4.0843 C.3       1 <0>        -0.0992
     17 C11         1.6177   -1.5916    4.6875 C.2       1 <0>        -0.0164
     18 C12         1.7953   -2.5492    5.5896 C.2       1 <0>        -0.2465
     19 C13         0.6481   -3.1316    6.2938 C.2       1 <0>         0.3879
     20 O2          0.7474   -4.1618    6.9278 O.2       1 <0>        -0.4591
     21 C14        -0.6605   -2.3725    6.2192 C.3       1 <0>        -0.1670
     22 C15        -0.8827   -1.9451    4.7712 C.3       1 <0>        -0.1093
     23 C16         0.2656   -1.1110    4.2328 C.3       1 <0>        -0.0242
     24 C17         0.2318   -1.1315    2.7020 C.3       1 <0>        -0.0970
     25 H6          0.3883   -2.1661    2.3628 H         1 <0>         0.0619
     26 C18        -1.1300   -0.7368    2.1640 C.3       1 <0>         0.1434
     27 H7         -1.8463   -1.4705    2.5622 H         1 <0>         0.0262
     28 O3         -1.6328    0.4860    2.6853 O.3       1 <0>        -0.5624
     29 C19         0.1149    0.3134    4.7603 C.3       1 <0>        -0.1589
     30 H8         -2.4960   -0.0917   -0.9387 H         1 <0>         0.0417
     31 H9         -2.5757    0.9171    0.5454 H         1 <0>         0.0858
     32 H10        -3.3160   -0.7195    0.5311 H         1 <0>         0.0465
     33 H11         3.1749    0.7904    0.7169 H         1 <0>         0.0691
     34 H12         2.6715    0.4028   -0.9633 H         1 <0>         0.0626
     35 H13         1.6884    2.5863    0.8788 H         1 <0>         0.0735
     36 H14         1.6906    2.5320   -0.9167 H         1 <0>         0.0620
     37 H15        -0.7383    3.1630    1.2702 H         1 <0>         0.3882
     38 H16         2.7951   -1.9548    2.2055 H         1 <0>         0.0629
     39 H17         3.5423   -0.3222    2.1511 H         1 <0>         0.0714
     40 H18         3.7415   -1.4771    4.3779 H         1 <0>         0.0765
     41 H19         2.9067    0.1118    4.4500 H         1 <0>         0.0850
     42 H20         2.8091   -2.9121    5.8142 H         1 <0>         0.1349
     43 H21        -1.4820   -3.0245    6.5510 H         1 <0>         0.0948
     44 H22        -0.6088   -1.4876    6.8706 H         1 <0>         0.1018
     45 H23        -0.9814   -2.8380    4.1364 H         1 <0>         0.0698
     46 H24        -1.8011   -1.3436    4.7032 H         1 <0>         0.0816
     47 H25        -1.6856    0.6397    3.7732 H         1 <0>         0.3798
     48 H26        -0.8622    0.7160    4.4550 H         1 <0>         0.0880
     49 H27         0.9164    0.9439    4.3478 H         1 <0>         0.0709
     50 H28         0.1820    0.3068    5.8582 H         1 <0>         0.0596
@<TRIPOS>BOND
     1    1    2 1
     2    1   30 1
     3    1   31 1
     4    1   32 1
     5    2    3 1
     6    2   26 1
     7    2    4 1
     8    4    5 1
     9    4   10 1
    10    4    6 1
    11    6    7 1
    12    6    8 1
    13    6   13 1
    14    8    9 1
    15    8   33 1
    16    8   34 1
    17    9   10 1
    18    9   35 1
    19    9   36 1
    20   10   11 1
    21   10   12 1
    22   12   37 1
    23   13   14 1
    24   13   24 1
    25   13   15 1
    26   15   16 1
    27   15   38 1
    28   15   39 1
    29   16   17 1
    30   16   40 1
    31   16   41 1
    32   17   23 1
    33   17   18 2
    34   18   19 1
    35   18   42 1
    36   19   20 2
    37   19   21 1
    38   21   22 1
    39   21   43 1
    40   21   44 1
    41   22   23 1
    42   22   45 1
    43   22   46 1
    44   23   24 1
    45   23   29 1
    46   24   25 1
    47   24   26 1
    48   26   27 1
    49   26   28 1
    50   28   47 1
    51   29   48 1
    52   29   49 1
    53   29   50 1
@<TRIPOS>MOLECULE
ZINC37669892
   30    31     0     0     0
SMALL
USER_CHARGES

@<TRIPOS>ATOM
      1 C1          0.2177   -2.7490    2.4968 C.3       1 <0>        -0.1333
      2 C2          0.1124   -2.0210    1.1815 C.2       1 <0>         0.1660
      3 C3          0.2072   -2.7144    0.0230 C.2       1 <0>        -0.2358
      4 C4          0.1102   -2.0436   -1.2042 C.2       1 <0>        -0.0123
      5 C5         -0.0796   -0.6929   -1.2125 C.2       1 <0>        -0.2505
      6 C6         -0.1737   -0.0039    0.0087 C.2       1 <0>         0.5165
      7 O1         -0.3439    1.2048    0.0158 O.2       1 <0>        -0.5486
      8 N1         -0.0820   -0.6774    1.1712 N.am      1 <0>        -0.4873
      9 C7         -0.1877    0.0488    2.4392 C.3       1 <0>         0.1245
     10 C8         -1.6259    0.0679    2.8888 C.ar      1 <0>        -0.0603
     11 C9         -2.4893    1.0313    2.4002 C.ar      1 <0>        -0.1390
     12 C10        -3.8097    1.0531    2.8102 C.ar      1 <0>        -0.0618
     13 C11        -4.2707    0.1111    3.7103 C.ar      1 <0>        -0.1073
     14 C12        -3.4053   -0.8587    4.2027 C.ar      1 <0>         0.2268
     15 C13        -2.0813   -0.8803    3.7839 C.ar      1 <0>        -0.1771
     16 N2         -3.8676   -1.8129    5.1130 N.pl3     1 <0>        -0.8709
     17 Cl1        -5.9282    0.1394    4.2257 Cl        1 <0>        -0.0698
     18 H1         -0.7815   -2.9895    2.8599 H         1 <0>         0.0905
     19 H2          0.7852   -3.6692    2.3583 H         1 <0>         0.0928
     20 H3          0.7255   -2.1148    3.2234 H         1 <0>         0.0809
     21 H4          0.3578   -3.7837    0.0439 H         1 <0>         0.1442
     22 H5          0.1852   -2.5901   -2.1327 H         1 <0>         0.1353
     23 H6         -0.1565   -0.1584   -2.1479 H         1 <0>         0.1482
     24 H7          0.4224   -0.4474    3.1940 H         1 <0>         0.1032
     25 H8          0.1639    1.0714    2.3026 H         1 <0>         0.1140
     26 H9         -2.1314    1.7687    1.6969 H         1 <0>         0.1387
     27 H10        -4.4813    1.8071    2.4269 H         1 <0>         0.1355
     28 H11        -1.4072   -1.6349    4.1614 H         1 <0>         0.1319
     29 H12        -4.7935   -1.7990    5.4020 H         1 <0>         0.4029
     30 H13        -3.2626   -2.4892    5.4559 H         1 <0>         0.4019
@<TRIPOS>BOND
     1    1    2 1
     2    1   18 1
     3    1   19 1
     4    1   20 1
     5    2    8 1
     6    2    3 2
     7    3    4 1
     8    3   21 1
     9    4    5 2
    10    4   22 1
    11    5    6 1
    12    5   23 1
    13    6    7 2
    14    6    8 am
    15    8    9 1
    16    9   10 1
    17    9   24 1
    18    9   25 1
    19   10   15 ar
    20   10   11 ar
    21   11   12 ar
    22   11   26 1
    23   12   13 ar
    24   12   27 1
    25   13   14 ar
    26   13   17 1
    27   14   15 ar
    28   14   16 1
    29   15   28 1
    30   16   29 1
    31   16   30 1
@<TRIPOS>MOLECULE
ZINC44020937
   50    53     0     0     0
SMALL
USER_CHARGES

@<TRIPOS>ATOM
      1 C1         -0.0187    1.5256    0.0104 C.3       1 <0>        -0.1469
      2 C2          0.0021   -0.0041    0.0020 C.3       1 <0>        -0.0488
      3 C3          0.6223   -0.5274   -1.2731 C.3       1 <0>        -0.1034
      4 C4          2.0730   -0.9574   -0.9863 C.3       1 <0>        -0.1130
      5 C5          2.7220    0.0661   -0.0657 C.3       1 <0>        -0.0675
      6 H1          2.4121    1.0469   -0.4563 H         1 <0>         0.0712
      7 C6          2.1590   -0.0227    1.3412 C.3       1 <0>        -0.0568
      8 H2          2.1232    0.9739    1.7859 H         1 <0>         0.0757
      9 C7          0.7366   -0.5741    1.2305 C.3       1 <0>        -0.0768
     10 H3          0.7727   -1.6725    1.1731 H         1 <0>         0.0831
     11 C8         -0.1869   -0.1564    2.3862 C.3       1 <0>        -0.1178
     12 C9         -1.6122   -0.3076    1.7933 C.3       1 <0>        -0.1570
     13 C10        -1.4366   -0.4908    0.2641 C.3       1 <0>         0.1030
     14 H4         -2.1451    0.1213   -0.2810 H         1 <0>         0.0592
     15 O1         -1.5646   -1.8679   -0.0837 O.3       1 <0>        -0.5586
     16 C11         2.9078   -0.9452    2.2813 C.3       1 <0>        -0.1100
     17 C12         4.4067   -1.0235    2.1545 C.3       1 <0>         0.1421
     18 H5          4.7348   -2.0004    2.5489 H         1 <0>         0.0612
     19 C13         4.8488   -0.9341    0.7139 C.2       1 <0>        -0.0486
     20 C14         5.7892   -1.7775    0.2882 C.2       1 <0>        -0.2269
     21 C15         6.2093   -1.7522   -1.1165 C.2       1 <0>         0.3897
     22 O2          7.2773   -2.2041   -1.4786 O.2       1 <0>        -0.4545
     23 C16         5.2191   -1.1687   -2.1063 C.3       1 <0>        -0.1679
     24 C17         4.7371    0.1736   -1.5723 C.3       1 <0>        -0.1041
     25 C18         4.2271    0.1107   -0.1508 C.3       1 <0>        -0.0219
     26 C19         4.6271    1.4647    0.4551 C.3       1 <0>        -0.1535
     27 O3          5.0287   -0.0099    2.9427 O.3       1 <0>        -0.5518
     28 H6          1.0039    1.9029    0.0027 H         1 <0>         0.0662
     29 H7         -0.5459    1.8867   -0.8726 H         1 <0>         0.0567
     30 H8         -0.5289    1.8771    0.9072 H         1 <0>         0.0592
     31 H9          0.0561   -1.3804   -1.6524 H         1 <0>         0.0772
     32 H10         0.6220    0.2587   -2.0352 H         1 <0>         0.0590
     33 H11         2.0759   -1.9386   -0.5069 H         1 <0>         0.0627
     34 H12         2.6248   -1.0190   -1.9249 H         1 <0>         0.0669
     35 H13        -0.0586   -0.8291    3.2369 H         1 <0>         0.0631
     36 H14         0.0018    0.8709    2.6908 H         1 <0>         0.0682
     37 H15        -2.1044   -1.1814    2.2184 H         1 <0>         0.0695
     38 H16        -2.1986    0.5886    1.9952 H         1 <0>         0.0681
     39 H17        -2.4499   -2.2293    0.0604 H         1 <0>         0.3766
     40 H18         2.6651   -0.6415    3.3054 H         1 <0>         0.0770
     41 H19         2.5015   -1.9542    2.1478 H         1 <0>         0.0739
     42 H20         6.2393   -2.4748    0.9798 H         1 <0>         0.1352
     43 H21         5.7104   -1.0273   -3.0716 H         1 <0>         0.0927
     44 H22         4.3778   -1.8504   -2.2279 H         1 <0>         0.1024
     45 H23         5.5657    0.8864   -1.6081 H         1 <0>         0.0718
     46 H24         3.9383    0.5494   -2.2140 H         1 <0>         0.0832
     47 H25         4.2833    1.5163    1.4882 H         1 <0>         0.0783
     48 H26         5.7118    1.5689    0.4275 H         1 <0>         0.0532
     49 H27         4.1701    2.2696   -0.1205 H         1 <0>         0.0595
     50 H28         5.9946   -0.0143    2.8980 H         1 <0>         0.3798
@<TRIPOS>BOND
     1    1    2 1
     2    1   28 1
     3    1   29 1
     4    1   30 1
     5    2    9 1
     6    2   13 1
     7    2    3 1
     8    3    4 1
     9    3   31 1
    10    3   32 1
    11    4    5 1
    12    4   33 1
    13    4   34 1
    14    5    6 1
    15    5   25 1
    16    5    7 1
    17    7    8 1
    18    7    9 1
    19    7   16 1
    20    9   10 1
    21    9   11 1
    22   11   12 1
    23   11   35 1
    24   11   36 1
    25   12   13 1
    26   12   37 1
    27   12   38 1
    28   13   14 1
    29   13   15 1
    30   15   39 1
    31   16   17 1
    32   16   40 1
    33   16   41 1
    34   17   18 1
    35   17   19 1
    36   17   27 1
    37   19   25 1
    38   19   20 2
    39   20   21 1
    40   20   42 1
    41   21   22 2
    42   21   23 1
    43   23   24 1
    44   23   43 1
    45   23   44 1
    46   24   25 1
    47   24   45 1
    48   24   46 1
    49   25   26 1
    50   26   47 1
    51   26   48 1
    52   26   49 1
    53   27   50 1
@<TRIPOS>MOLECULE
ZINC58092302
   42    43     0     0     0
SMALL
USER_CHARGES

@<TRIPOS>ATOM
      1 C1         -0.0184    1.5028    0.0103 C.3       1 <0>        -0.1124
      2 C2          0.0021   -0.0041    0.0020 C.ar      1 <0>        -0.0985
      3 C3          0.0058   -0.6908   -1.1985 C.ar      1 <0>        -0.0790
      4 C4          0.0245   -2.0700   -1.2130 C.ar      1 <0>        -0.1241
      5 C5          0.0402   -2.7821   -0.0151 C.ar      1 <0>         0.1488
      6 C6          0.0367   -2.0809    1.1839 C.ar      1 <0>        -0.1234
      7 C7          0.0229   -0.7042    1.1956 C.ar      1 <0>        -0.0635
      8 C8          0.0564   -3.1180    2.2831 C.3       1 <0>        -0.0538
      9 C9          0.0706   -4.4385    1.5429 C.2       1 <0>         0.5348
     10 O1          0.0885   -5.5439    2.0418 O.2       1 <0>        -0.4938
     11 N1          0.0602   -4.1557    0.2294 N.am      1 <0>        -0.6599
     12 C10         1.3164   -2.9690    3.1382 C.3       1 <0>        -0.1266
     13 C11        -1.1985   -3.0033    3.1508 C.3       1 <0>        -0.1270
     14 C12         0.0275   -2.8082   -2.5268 C.3       1 <0>         0.1586
     15 H1         -0.5490   -3.7280   -2.4280 H         1 <0>         0.1011
     16 C13         1.4671   -3.1481   -2.9176 C.3       1 <0>        -0.0949
     17 C14         2.0947   -4.0296   -1.8359 C.3       1 <0>        -0.1484
     18 C15         1.4701   -3.8976   -4.2515 C.3       1 <0>        -0.1393
     19 C16         2.2763   -1.8570   -3.0563 C.3       1 <0>        -0.1496
     20 O2         -0.5587   -1.9849   -3.5371 O.3       1 <0>        -0.5474
     21 H2          1.0042    1.8801    0.0026 H         1 <0>         0.0716
     22 H3         -0.5455    1.8639   -0.8728 H         1 <0>         0.0683
     23 H4         -0.5286    1.8543    0.9071 H         1 <0>         0.0683
     24 H5         -0.0063   -0.1442   -2.1298 H         1 <0>         0.1287
     25 H6          0.0242   -0.1714    2.1350 H         1 <0>         0.1293
     26 H7          0.0658   -4.8291   -0.4687 H         1 <0>         0.4114
     27 H8          1.3352   -1.9763    3.5878 H         1 <0>         0.0737
     28 H9          1.3133   -3.7240    3.9244 H         1 <0>         0.0722
     29 H10         2.1984   -3.1008    2.5115 H         1 <0>         0.0602
     30 H11        -2.0829   -3.1590    2.5330 H         1 <0>         0.0607
     31 H12        -1.1670   -3.7577    3.9369 H         1 <0>         0.0723
     32 H13        -1.2398   -2.0113    3.6007 H         1 <0>         0.0738
     33 H14         1.5182   -4.9494   -1.7371 H         1 <0>         0.0517
     34 H15         3.1203   -4.2717   -2.1144 H         1 <0>         0.0633
     35 H16         2.0926   -3.4956   -0.8857 H         1 <0>         0.0620
     36 H17         1.0230   -3.2696   -5.0221 H         1 <0>         0.0640
     37 H18         2.4958   -4.1397   -4.5299 H         1 <0>         0.0575
     38 H19         0.8937   -4.8174   -4.1527 H         1 <0>         0.0549
     39 H20         2.2742   -1.3230   -2.1060 H         1 <0>         0.0623
     40 H21         3.3019   -2.0991   -3.3347 H         1 <0>         0.0619
     41 H22         1.8292   -1.2290   -3.8269 H         1 <0>         0.0567
     42 H23        -0.0964   -1.1476   -3.6793 H         1 <0>         0.3733
@<TRIPOS>BOND
     1    1    2 1
     2    1   21 1
     3    1   22 1
     4    1   23 1
     5    2    7 ar
     6    2    3 ar
     7    3    4 ar
     8    3   24 1
     9    4    5 ar
    10    4   14 1
    11    5   11 1
    12    5    6 ar
    13    6    7 ar
    14    6    8 1
    15    7   25 1
    16    8    9 1
    17    8   12 1
    18    8   13 1
    19    9   10 2
    20    9   11 am
    21   11   26 1
    22   12   27 1
    23   12   28 1
    24   12   29 1
    25   13   30 1
    26   13   31 1
    27   13   32 1
    28   14   15 1
    29   14   16 1
    30   14   20 1
    31   16   17 1
    32   16   18 1
    33   16   19 1
    34   17   33 1
    35   17   34 1
    36   17   35 1
    37   18   36 1
    38   18   37 1
    39   18   38 1
    40   19   39 1
    41   19   40 1
    42   19   41 1
    43   20   42 1
@<TRIPOS>MOLECULE
ZINC06925575
   26    28     0     0     0
SMALL
USER_CHARGES
4,6-dichloro-2-(2-chloro-4,5-difluoro-phenyl)-benzooxazol-5-amine
@<TRIPOS>ATOM
      1 C1          1.5238    8.4631    0.0277 C.ar      1 <0>        -0.0592
      2 C2          2.2428    7.2660    0.0204 C.ar      1 <0>        -0.0042
      3 C3          3.6394    7.2960    0.0075 C.ar      1 <0>         0.0078
      4 C4          4.3017    8.5075    0.0078 C.ar      1 <0>        -0.1197
      5 C5          3.5844    9.6920    0.0203 C.ar      1 <0>         0.1123
      6 C6          2.1961    9.6687    0.0332 C.ar      1 <0>         0.0765
      7 F1          1.5022   10.8278    0.0449 F         1 <0>        -0.1117
      8 F2          4.2377   10.8746    0.0196 F         1 <0>        -0.1098
      9 Cl1         4.5407    5.8124   -0.0082 Cl        1 <0>        -0.0119
     10 C7          1.5291    5.9727    0.0202 C.2       1 <0>         0.3003
     11 N1          0.2274    5.8338    0.0317 N.2       1 <0>        -0.4509
     12 C8         -0.0707    4.5086    0.0269 C.ar      1 <0>         0.0883
     13 C9          1.1531    3.8198    0.0116 C.ar      1 <0>        -0.0163
     14 O1          2.1221    4.7638    0.0078 O.3       1 <0>        -0.1802
     15 C10         1.1669    2.4338    0.0040 C.ar      1 <0>        -0.0254
     16 C11        -0.0215    1.7317    0.0116 C.ar      1 <0>        -0.0730
     17 C12        -1.2399    2.4076    0.0210 C.ar      1 <0>         0.2464
     18 C13        -1.2697    3.7910    0.0345 C.ar      1 <0>        -0.0700
     19 Cl2        -2.7889    4.6308    0.0541 Cl        1 <0>        -0.0325
     20 N2         -2.4390    1.6840    0.0228 N.pl3     1 <0>        -0.8554
     21 Cl3         0.0021   -0.0041    0.0020 Cl        1 <0>        -0.0316
     22 H1          0.4439    8.4457    0.0328 H         1 <0>         0.1756
     23 H2          5.3814    8.5314   -0.0022 H         1 <0>         0.1699
     24 H3          2.1075    1.9032   -0.0075 H         1 <0>         0.1566
     25 H4         -2.4202    0.7142    0.0175 H         1 <0>         0.4090
     26 H5         -3.2882    2.1526    0.0294 H         1 <0>         0.4090
@<TRIPOS>BOND
     1    1    6 ar
     2    1    2 ar
     3    1   22 1
     4    2    3 ar
     5    2   10 1
     6    3    4 ar
     7    3    9 1
     8    4    5 ar
     9    4   23 1
    10    5    6 ar
    11    5    8 1
    12    6    7 1
    13   10   14 1
    14   10   11 2
    15   11   12 1
    16   12   18 ar
    17   12   13 ar
    18   13   14 1
    19   13   15 ar
    20   15   16 ar
    21   15   24 1
    22   16   17 ar
    23   16   21 1
    24   17   18 ar
    25   17   20 1
    26   18   19 1
    27   20   25 1
    28   20   26 1
@<TRIPOS>MOLECULE
ZINC35345018
   29    31     0     0     0
SMALL
USER_CHARGES

@<TRIPOS>ATOM
      1 C1          2.9674    4.0465    3.4010 C.ar      1 <0>        -0.0070
      2 C2          3.0117    3.6868    2.0662 C.ar      1 <0>        -0.1532
      3 C3          3.8511    2.6490    1.6726 C.ar      1 <0>         0.1176
      4 N1          4.5985    2.0121    2.5624 N.ar      1 <0>        -0.4715
      5 C4          4.5762    2.3341    3.8415 C.ar      1 <0>         0.1717
      6 C5          3.7667    3.3540    4.3011 C.ar      1 <0>        -0.2482
      7 C6          3.7510    3.7122    5.7648 C.3       1 <0>         0.5173
      8 F1          2.7706    2.9583    6.4189 F         1 <0>        -0.1731
      9 F2          5.0026    3.4367    6.3259 F         1 <0>        -0.1741
     10 F3          3.4651    5.0741    5.9086 F         1 <0>        -0.1746
     11 S1          3.9203    2.1773   -0.0237 S.3       1 <0>         0.0747
     12 C7          5.2156    0.9842   -0.0819 C.ar      1 <0>        -0.2274
     13 C8          4.8961   -0.3666   -0.1883 C.ar      1 <0>         0.0157
     14 C9          5.9100   -1.3050   -0.2342 C.ar      1 <0>        -0.1357
     15 C10         7.2206   -0.8945   -0.1743 C.ar      1 <0>        -0.0905
     16 C11         7.5864    0.4652   -0.0661 C.ar      1 <0>        -0.0020
     17 C12         6.5317    1.4074   -0.0266 C.ar      1 <0>         0.3506
     18 N2          6.8209    2.7734    0.0746 N.pl3     1 <0>        -0.8445
     19 N3          8.9211    0.6597   -0.0211 N.2       1 <0>        -0.4933
     20 C13         9.7671   -0.3268   -0.0740 C.2       1 <0>         0.0521
     21 S2          8.8015   -1.6996   -0.1969 S.3       1 <0>         0.0963
     22 H1          2.3287    4.8508    3.7351 H         1 <0>         0.1542
     23 H2          2.4029    4.2040    1.3394 H         1 <0>         0.1538
     24 H3          5.1991    1.7929    4.5383 H         1 <0>         0.1687
     25 H4          3.8633   -0.6792   -0.2344 H         1 <0>         0.1463
     26 H5          5.6736   -2.3556   -0.3163 H         1 <0>         0.1392
     27 H6          6.0993    3.4209    0.1058 H         1 <0>         0.4040
     28 H7          7.7428    3.0724    0.1135 H         1 <0>         0.4108
     29 H8         10.8456   -0.2763   -0.0455 H         1 <0>         0.2222
@<TRIPOS>BOND
     1    1    6 ar
     2    1    2 ar
     3    1   22 1
     4    2    3 ar
     5    2   23 1
     6    3    4 ar
     7    3   11 1
     8    4    5 ar
     9    5    6 ar
    10    5   24 1
    11    6    7 1
    12    7    8 1
    13    7    9 1
    14    7   10 1
    15   11   12 1
    16   12   17 ar
    17   12   13 ar
    18   13   14 ar
    19   13   25 1
    20   14   15 ar
    21   14   26 1
    22   15   21 1
    23   15   16 ar
    24   16   17 ar
    25   16   19 1
    26   17   18 1
    27   18   27 1
    28   18   28 1
    29   19   20 2
    30   20   21 1
    31   20   29 1
@<TRIPOS>MOLECULE
ZINC40233423
   29    30     0     0     0
SMALL
USER_CHARGES

@<TRIPOS>ATOM
      1 C1          0.0649    1.2422   -0.6208 C.ar      1 <0>        -0.0767
      2 C2          1.2501    1.9521   -0.6187 C.ar      1 <0>        -0.1164
      3 C3          2.3819    1.4103   -0.0242 C.ar      1 <0>         0.1739
      4 C4          2.3188    0.1542    0.5675 C.ar      1 <0>        -0.0684
      5 C5          1.1294   -0.5513    0.5621 C.ar      1 <0>        -0.0091
      6 C6          0.0037   -0.0070   -0.0318 C.ar      1 <0>        -0.1155
      7 Cl1         1.0480   -2.1203    1.3005 Cl        1 <0>        -0.0404
      8 Cl2         3.7310   -0.5282    1.3117 Cl        1 <0>        -0.0422
      9 N1          3.5832    2.1269   -0.0212 N.am      1 <0>        -0.6625
     10 C7          3.5662    3.4712   -0.1160 C.2       1 <0>         0.6122
     11 O1          2.5058    4.0690   -0.1028 O.2       1 <0>        -0.4949
     12 C8          4.8234    4.2128   -0.2348 C.2       1 <0>        -0.2365
     13 C9          5.0212    5.5829   -0.3370 C.2       1 <0>        -0.0577
     14 C10         6.2982    6.0557   -0.4391 C.2       1 <0>        -0.1421
     15 C11         7.3479    5.1472   -0.4365 C.2       1 <0>        -0.0182
     16 S1          6.4948    3.5871   -0.2775 S.3       1 <0>         0.1408
     17 C12         8.7546    5.3977   -0.5316 C.1       1 <0>        -0.1019
     18 C13         9.9079    5.6031   -0.6095 C.1       1 <0>        -0.1034
     19 C14        11.3539    5.8606   -0.7073 C.3       1 <0>         0.1873
     20 O2         12.0626    4.6205   -0.6635 O.3       1 <0>        -0.5661
     21 H1         -0.8164    1.6658   -1.0793 H         1 <0>         0.1465
     22 H2          1.2964    2.9277   -1.0795 H         1 <0>         0.1621
     23 H3         -0.9243   -0.5594   -0.0351 H         1 <0>         0.1464
     24 H4          4.4285    1.6563    0.0491 H         1 <0>         0.4146
     25 H5          4.1814    6.2619   -0.3363 H         1 <0>         0.1564
     26 H6          6.4878    7.1158   -0.5205 H         1 <0>         0.1530
     27 H7         11.5697    6.3694   -1.6468 H         1 <0>         0.0827
     28 H8         11.6683    6.4884    0.1265 H         1 <0>         0.0825
     29 H9         13.0232    4.7141   -0.7232 H         1 <0>         0.3935
@<TRIPOS>BOND
     1    1    6 ar
     2    1    2 ar
     3    1   21 1
     4    2    3 ar
     5    2   22 1
     6    3    4 ar
     7    3    9 1
     8    4    5 ar
     9    4    8 1
    10    5    6 ar
    11    5    7 1
    12    6   23 1
    13    9   10 am
    14    9   24 1
    15   10   11 2
    16   10   12 1
    17   12   16 1
    18   12   13 2
    19   13   14 1
    20   13   25 1
    21   14   15 2
    22   14   26 1
    23   15   16 1
    24   15   17 1
    25   17   18 3
    26   18   19 1
    27   19   20 1
    28   19   27 1
    29   19   28 1
    30   20   29 1
@<TRIPOS>MOLECULE
ZINC04125126
   60    63     0     0     0
SMALL
USER_CHARGES

@<TRIPOS>ATOM
      1 C1         -0.0187    1.5258    0.0104 C.3       1 <0>        -0.1476
      2 C2          0.0021   -0.0041    0.0020 C.3       1 <0>        -0.0925
      3 H1          0.5122   -0.3558   -0.8947 H         1 <0>         0.0682
      4 C3         -1.4334   -0.5341    0.0137 C.3       1 <0>        -0.1101
      5 C4         -1.4093   -2.0636   -0.0015 C.3       1 <0>        -0.1309
      6 C5         -0.6648   -2.5789    1.2296 C.3       1 <0>         0.2991
      7 C6          0.7683   -2.0410    1.2325 C.3       1 <0>        -0.1184
      8 H2          1.2959   -2.4003    0.3490 H         1 <0>         0.0836
      9 C7          0.7411   -0.5111    1.2416 C.3       1 <0>        -0.1067
     10 C8          1.4792   -2.5394    2.4942 C.3       1 <0>         0.1486
     11 C9          2.8927   -1.9607    2.5618 C.3       1 <0>        -0.1467
     12 C10         3.5842   -2.4676    3.8300 C.3       1 <0>        -0.1087
     13 C11         2.7890   -2.0297    5.0609 C.3       1 <0>        -0.0913
     14 H3          3.2805   -2.4000    5.9607 H         1 <0>         0.0689
     15 C12         1.3688   -2.5962    4.9866 C.3       1 <0>        -0.1063
     16 C13         0.6862   -2.0769    3.7211 C.3       1 <0>        -0.0927
     17 H4          0.6565   -0.9876    3.7452 H         1 <0>         0.0863
     18 C14        -0.7391   -2.6239    3.6283 C.3       1 <0>         0.1403
     19 O1         -1.3411   -2.1625    2.4158 O.3       1 <0>        -0.3762
     20 C15        -0.7002   -4.1531    3.6287 C.3       1 <0>        -0.1802
     21 C16        -2.1258   -4.7004    3.5344 C.3       1 <0>        -0.1071
     22 C17        -2.9402   -4.2097    4.7331 C.3       1 <0>        -0.0934
     23 C18        -2.9810   -2.6803    4.7302 C.3       1 <0>        -0.1080
     24 C19        -1.5557   -2.1318    4.8243 C.3       1 <0>        -0.1083
     25 C20        -4.3656   -4.7580    4.6401 C.3       1 <0>        -0.1475
     26 C21         2.7247   -0.5018    5.1083 C.3       1 <0>        -0.1530
     27 O2          1.5417   -3.9669    2.4755 O.3       1 <0>        -0.5247
     28 O3         -0.6182   -4.0066    1.1896 O.3       1 <0>        -0.5537
     29 H5          1.0039    1.9031    0.0027 H         1 <0>         0.0543
     30 H6         -0.5459    1.8868   -0.8726 H         1 <0>         0.0555
     31 H7         -0.5289    1.8773    0.9072 H         1 <0>         0.0555
     32 H8         -1.9418   -0.1872    0.9133 H         1 <0>         0.0731
     33 H9         -1.9627   -0.1699   -0.8668 H         1 <0>         0.0639
     34 H10        -2.4313   -2.4426    0.0078 H         1 <0>         0.0712
     35 H11        -0.9030   -2.4095   -0.9027 H         1 <0>         0.0803
     36 H12         1.7622   -0.1297    1.2368 H         1 <0>         0.0694
     37 H13         0.2281   -0.1627    2.1379 H         1 <0>         0.0744
     38 H14         3.4587   -2.2791    1.6864 H         1 <0>         0.0627
     39 H15         2.8398   -0.8723    2.5862 H         1 <0>         0.0752
     40 H16         3.6399   -3.5558    3.8025 H         1 <0>         0.0686
     41 H17         4.5916   -2.0549    3.8834 H         1 <0>         0.0586
     42 H18         1.4121   -3.6849    4.9564 H         1 <0>         0.0777
     43 H19         0.8033   -2.2776    5.8623 H         1 <0>         0.0615
     44 H20        -0.1199   -4.5019    2.7745 H         1 <0>         0.1616
     45 H21        -0.2365   -4.5044    4.5505 H         1 <0>         0.0530
     46 H22        -2.5893   -4.3501    2.6121 H         1 <0>         0.0549
     47 H23        -2.0975   -5.7901    3.5358 H         1 <0>         0.0549
     48 H24        -2.4760   -4.5591    5.6553 H         1 <0>         0.0636
     49 H25        -3.4446   -2.3309    3.8077 H         1 <0>         0.0674
     50 H26        -3.5618   -2.3307    5.5837 H         1 <0>         0.0561
     51 H27        -1.0929   -2.4796    5.7478 H         1 <0>         0.0743
     52 H28        -1.5849   -1.0422    4.8206 H         1 <0>         0.0622
     53 H29        -4.3366   -5.8476    4.6421 H         1 <0>         0.0520
     54 H30        -4.9458   -4.4084    5.4940 H         1 <0>         0.0511
     55 H31        -4.8298   -4.4086    3.7178 H         1 <0>         0.0523
     56 H32         2.2349   -0.1307    4.2080 H         1 <0>         0.0575
     57 H33         2.1581   -0.1890    5.9853 H         1 <0>         0.0531
     58 H34         3.7352   -0.0972    5.1652 H         1 <0>         0.0525
     59 H35         2.0197   -4.3298    1.7173 H         1 <0>         0.3660
     60 H36        -1.4883   -4.4284    1.1829 H         1 <0>         0.3748
@<TRIPOS>BOND
     1    1    2 1
     2    1   29 1
     3    1   30 1
     4    1   31 1
     5    2    3 1
     6    2    9 1
     7    2    4 1
     8    4    5 1
     9    4   32 1
    10    4   33 1
    11    5    6 1
    12    5   34 1
    13    5   35 1
    14    6   19 1
    15    6    7 1
    16    6   28 1
    17    7    8 1
    18    7    9 1
    19    7   10 1
    20    9   36 1
    21    9   37 1
    22   10   16 1
    23   10   11 1
    24   10   27 1
    25   11   12 1
    26   11   38 1
    27   11   39 1
    28   12   13 1
    29   12   40 1
    30   12   41 1
    31   13   14 1
    32   13   15 1
    33   13   26 1
    34   15   16 1
    35   15   42 1
    36   15   43 1
    37   16   17 1
    38   16   18 1
    39   18   24 1
    40   18   19 1
    41   18   20 1
    42   20   21 1
    43   20   44 1
    44   20   45 1
    45   21   22 1
    46   21   46 1
    47   21   47 1
    48   22   23 1
    49   22   25 1
    50   22   48 1
    51   23   24 1
    52   23   49 1
    53   23   50 1
    54   24   51 1
    55   24   52 1
    56   25   53 1
    57   25   54 1
    58   25   55 1
    59   26   56 1
    60   26   57 1
    61   26   58 1
    62   27   59 1
    63   28   60 1
@<TRIPOS>MOLECULE
ZINC37318383
   33    35     0     0     0
SMALL
USER_CHARGES

@<TRIPOS>ATOM
      1 C1         -0.0184    1.5028    0.0103 C.3       1 <0>        -0.0761
      2 C2          0.0021   -0.0041    0.0020 C.2       1 <0>         0.2673
      3 N1          0.0074   -0.7781   -1.1183 N.pl3     1 <0>        -0.6037
      4 H1         -0.0011   -0.4623   -2.0354 H         1 <0>         0.4206
      5 C3          0.0272   -2.0958   -0.7067 C.ar      1 <0>         0.0985
      6 C4          0.0403   -3.3143   -1.3709 C.ar      1 <0>        -0.2026
      7 C5          0.0592   -4.4914   -0.6418 C.ar      1 <0>         0.2387
      8 C6          0.0652   -4.4553    0.7516 C.ar      1 <0>        -0.1885
      9 C7          0.0524   -3.2627    1.4158 C.ar      1 <0>        -0.0155
     10 C8          0.0333   -2.0635    0.6980 C.ar      1 <0>        -0.0019
     11 N2          0.0228   -0.7549    1.0638 N.2       1 <0>        -0.4830
     12 N3          0.0720   -5.7216   -1.3062 N.pl3     1 <0>        -0.7394
     13 C9          0.0921   -6.9689   -0.5380 C.3       1 <0>         0.2308
     14 H2          0.6842   -6.8291    0.3664 H         1 <0>         0.1088
     15 C10        -1.3382   -7.3559   -0.1564 C.3       1 <0>        -0.1676
     16 C11         0.7027   -8.0640   -1.3740 C.2       1 <0>        -0.1282
     17 C12         1.6229   -8.9952   -1.0211 C.2       1 <0>        -0.1116
     18 C13         2.0429   -9.9138   -1.9654 C.2       1 <0>        -0.1429
     19 C14         1.5223   -9.8559   -3.2156 C.2       1 <0>        -0.1575
     20 S1          0.3965   -8.4766   -3.0837 S.3       1 <0>         0.0855
     21 Br1         2.3216   -9.0367    0.7356 Br        1 <0>        -0.0292
     22 H3          1.0042    1.8801    0.0026 H         1 <0>         0.0864
     23 H4         -0.5455    1.8639   -0.8728 H         1 <0>         0.0781
     24 H5         -0.5286    1.8543    0.9071 H         1 <0>         0.0955
     25 H6          0.0353   -3.3443   -2.4505 H         1 <0>         0.1202
     26 H7          0.0796   -5.3791    1.3109 H         1 <0>         0.1303
     27 H8          0.0576   -3.2458    2.4957 H         1 <0>         0.1317
     28 H9          0.0676   -5.7492   -2.2758 H         1 <0>         0.3998
     29 H10        -1.9303   -7.4957   -1.0608 H         1 <0>         0.0643
     30 H11        -1.3232   -8.2839    0.4151 H         1 <0>         0.0720
     31 H12        -1.7799   -6.5638    0.4482 H         1 <0>         0.0758
     32 H13         2.7750  -10.6658   -1.7108 H         1 <0>         0.1469
     33 H14         1.7312  -10.4840   -4.0690 H         1 <0>         0.1965
@<TRIPOS>BOND
     1    1    2 1
     2    1   22 1
     3    1   23 1
     4    1   24 1
     5    2   11 2
     6    2    3 1
     7    3    4 1
     8    3    5 1
     9    5   10 ar
    10    5    6 ar
    11    6    7 ar
    12    6   25 1
    13    7    8 ar
    14    7   12 1
    15    8    9 ar
    16    8   26 1
    17    9   10 ar
    18    9   27 1
    19   10   11 1
    20   12   13 1
    21   12   28 1
    22   13   14 1
    23   13   15 1
    24   13   16 1
    25   15   29 1
    26   15   30 1
    27   15   31 1
    28   16   20 1
    29   16   17 2
    30   17   18 1
    31   17   21 1
    32   18   19 2
    33   18   32 1
    34   19   20 1
    35   19   33 1
@<TRIPOS>MOLECULE
ZINC04074017
   71    75     0     0     0
SMALL
USER_CHARGES
1-(dihydroxy-trimethyl-BLAHyl)ethanone
@<TRIPOS>ATOM
      1 C1          8.3970    0.3308    1.4994 C.3       1 <0>        -0.1554
      2 C2          6.9927   -0.2643    1.3785 C.3       1 <0>        -0.1169
      3 H1          6.7644   -0.8446    2.2725 H         1 <0>         0.0775
      4 C3          5.9649    0.8488    1.2507 C.3       1 <0>        -0.1001
      5 C4          4.5528    0.3133    1.0894 C.3       1 <0>        -0.0631
      6 H2          4.2158   -0.0657    2.0542 H         1 <0>         0.0648
      7 C5          4.4373   -0.7929    0.0588 C.3       1 <0>        -0.0850
      8 H3          3.5211   -1.3338    0.2959 H         1 <0>         0.0827
      9 C6          4.2186   -0.2225   -1.3424 C.3       1 <0>        -0.1082
     10 C7          2.8013    0.3693   -1.4342 C.3       1 <0>        -0.1192
     11 C8          2.3939    0.8076   -0.0381 C.3       1 <0>        -0.0436
     12 C9          3.6277    1.4461    0.6527 C.3       1 <0>        -0.0712
     13 H4          4.1436    2.1275   -0.0237 H         1 <0>         0.0821
     14 C10         2.9848    2.2039    1.8262 C.3       1 <0>        -0.1131
     15 C11         1.6904    2.7882    1.1968 C.3       1 <0>        -0.0913
     16 H5          0.9000    2.6095    1.9257 H         1 <0>         0.0841
     17 C12         1.3561    1.9366   -0.0092 C.3       1 <0>        -0.0756
     18 C13         1.3256    2.6611   -1.3344 C.3       1 <0>        -0.1084
     19 C14         0.7245    4.0505   -1.1859 C.3       1 <0>        -0.1230
     20 C15         1.6883    4.8604   -0.3202 C.3       1 <0>        -0.1145
     21 C16         1.7928    4.2700    1.0656 C.3       1 <0>        -0.1032
     22 C17         0.0017    1.3159    0.2177 C.2       1 <0>         0.3673
     23 O1         -0.6011    1.5391    1.2401 O.2       1 <0>        -0.4577
     24 C18        -0.5977    0.4119   -0.8284 C.3       1 <0>        -0.2037
     25 C19         1.8937   -0.3848    0.7797 C.3       1 <0>        -0.1720
     26 C20         5.5453   -1.8144    0.0795 C.3       1 <0>        -0.0286
     27 C21         6.9253   -1.1715    0.1484 C.3       1 <0>         0.1614
     28 C22         7.9947   -2.2606    0.2701 C.3       1 <0>        -0.1430
     29 C23         7.9252   -3.1614   -0.9651 C.3       1 <0>         0.1085
     30 H6          8.1025   -2.5649   -1.8600 H         1 <0>         0.0603
     31 C24         6.5409   -3.8075   -1.0490 C.3       1 <0>        -0.1552
     32 C25         5.4731   -2.7166   -1.1546 C.3       1 <0>        -0.1045
     33 O2          8.9215   -4.1812   -0.8674 O.3       1 <0>        -0.5722
     34 O3          7.1491   -0.3954   -1.0304 O.3       1 <0>        -0.5455
     35 C26         5.3643   -2.6901    1.3210 C.3       1 <0>        -0.1591
     36 H7          8.6228    0.9134    0.6062 H         1 <0>         0.0554
     37 H8          8.4436    0.9769    2.3760 H         1 <0>         0.0588
     38 H9          9.1250   -0.4739    1.6019 H         1 <0>         0.0600
     39 H10         6.2218    1.4433    0.3739 H         1 <0>         0.0658
     40 H11         6.0044    1.4861    2.1341 H         1 <0>         0.0587
     41 H12         4.9528    0.5596   -1.5357 H         1 <0>         0.0710
     42 H13         4.3304   -1.0170   -2.0803 H         1 <0>         0.0666
     43 H14         2.1078   -0.3874   -1.8012 H         1 <0>         0.0610
     44 H15         2.8020    1.2279   -2.1057 H         1 <0>         0.0765
     45 H16         2.7431    1.5206    2.6403 H         1 <0>         0.0648
     46 H17         3.6406    3.0013    2.1758 H         1 <0>         0.0673
     47 H18         2.3407    2.7410   -1.7232 H         1 <0>         0.0821
     48 H19         0.7158    2.0952   -2.0388 H         1 <0>         0.0692
     49 H20        -0.2495    3.9921   -0.6999 H         1 <0>         0.0607
     50 H21         0.6221    4.5200   -2.1642 H         1 <0>         0.0685
     51 H22         1.3279    5.8865   -0.2463 H         1 <0>         0.0605
     52 H23         2.6740    4.8595   -0.7854 H         1 <0>         0.0608
     53 H24         1.0071    4.7137    1.6770 H         1 <0>         0.0531
     54 H25         2.7502    4.5765    1.4871 H         1 <0>         0.0609
     55 H26        -1.5181    0.1407   -0.5468 H         1 <0>         0.0716
     56 H27        -0.6500    0.9417   -1.7796 H         1 <0>         0.0926
     57 H28         0.0244   -0.4761   -0.9409 H         1 <0>         0.0963
     58 H29         1.4960   -1.1452    0.1076 H         1 <0>         0.0602
     59 H30         2.7199   -0.8038    1.3540 H         1 <0>         0.0859
     60 H31         1.1086   -0.0550    1.4602 H         1 <0>         0.0550
     61 H32         7.8199   -2.8571    1.1655 H         1 <0>         0.0814
     62 H33         8.9800   -1.7980    0.3278 H         1 <0>         0.0734
     63 H34         6.3636   -4.4039   -0.1541 H         1 <0>         0.0717
     64 H35         6.4925   -4.4495   -1.9286 H         1 <0>         0.0625
     65 H36         4.4869   -3.1773   -1.2110 H         1 <0>         0.0628
     66 H37         5.6483   -2.1214   -2.0508 H         1 <0>         0.0793
     67 H38         8.9359   -4.7902   -1.6183 H         1 <0>         0.3777
     68 H39         8.0103    0.0437   -1.0546 H         1 <0>         0.3696
     69 H40         4.3959   -3.1884    1.2761 H         1 <0>         0.0587
     70 H41         6.1565   -3.4380    1.3567 H         1 <0>         0.0649
     71 H42         5.4117   -2.0678    2.2146 H         1 <0>         0.0595
@<TRIPOS>BOND
     1    1    2 1
     2    1   36 1
     3    1   37 1
     4    1   38 1
     5    2    3 1
     6    2   27 1
     7    2    4 1
     8    4    5 1
     9    4   39 1
    10    4   40 1
    11    5    6 1
    12    5   12 1
    13    5    7 1
    14    7    8 1
    15    7    9 1
    16    7   26 1
    17    9   10 1
    18    9   41 1
    19    9   42 1
    20   10   11 1
    21   10   43 1
    22   10   44 1
    23   11   17 1
    24   11   12 1
    25   11   25 1
    26   12   13 1
    27   12   14 1
    28   14   15 1
    29   14   45 1
    30   14   46 1
    31   15   16 1
    32   15   21 1
    33   15   17 1
    34   17   18 1
    35   17   22 1
    36   18   19 1
    37   18   47 1
    38   18   48 1
    39   19   20 1
    40   19   49 1
    41   19   50 1
    42   20   21 1
    43   20   51 1
    44   20   52 1
    45   21   53 1
    46   21   54 1
    47   22   23 2
    48   22   24 1
    49   24   55 1
    50   24   56 1
    51   24   57 1
    52   25   58 1
    53   25   59 1
    54   25   60 1
    55   26   32 1
    56   26   27 1
    57   26   35 1
    58   27   28 1
    59   27   34 1
    60   28   29 1
    61   28   61 1
    62   28   62 1
    63   29   30 1
    64   29   31 1
    65   29   33 1
    66   31   32 1
    67   31   63 1
    68   31   64 1
    69   32   65 1
    70   32   66 1
    71   33   67 1
    72   34   68 1
    73   35   69 1
    74   35   70 1
    75   35   71 1
@<TRIPOS>MOLECULE
ZINC03082167
   34    36     0     0     0
SMALL
USER_CHARGES
3-(2-iodophenyl)-1-(1-naphthyl)urea
@<TRIPOS>ATOM
      1 C1          0.6775    1.7537    1.8263 C.ar      1 <0>        -0.1149
      2 C2          0.6726    3.1470    1.8544 C.ar      1 <0>        -0.1123
      3 C3         -0.3399    3.8556    1.2831 C.ar      1 <0>        -0.1120
      4 C4         -1.3960    3.1760    0.6558 C.ar      1 <0>        -0.0644
      5 C5         -1.3888    1.7596    0.6212 C.ar      1 <0>        -0.0336
      6 C6         -0.3294    1.0617    1.2268 C.ar      1 <0>        -0.1024
      7 C7         -2.4482    1.0776   -0.0008 C.ar      1 <0>        -0.1248
      8 C8         -3.4650    1.7790   -0.5737 C.ar      1 <0>        -0.0905
      9 C9         -3.4799    3.1703   -0.5514 C.ar      1 <0>        -0.1300
     10 C10        -2.4625    3.8764    0.0536 C.ar      1 <0>         0.1665
     11 N1         -2.4869    5.2723    0.0700 N.am      1 <0>        -0.6712
     12 C11        -3.6608    5.9270   -0.0288 C.2       1 <0>         0.7073
     13 O1         -4.7056    5.3051   -0.0291 O.2       1 <0>        -0.5432
     14 N2         -3.6766    7.2711   -0.1272 N.am      1 <0>        -0.6796
     15 C12        -4.8949    7.9596   -0.1115 C.ar      1 <0>         0.1989
     16 C13        -6.0067    7.3929    0.4978 C.ar      1 <0>        -0.1266
     17 C14        -7.2062    8.0772    0.5163 C.ar      1 <0>        -0.0768
     18 C15        -7.3040    9.3210   -0.0803 C.ar      1 <0>        -0.1338
     19 C16        -6.2007    9.8859   -0.6929 C.ar      1 <0>        -0.0631
     20 C17        -4.9962    9.2088   -0.7103 C.ar      1 <0>        -0.1374
     21 I1         -3.3251   10.0652   -1.6393 I         1 <0>        -0.0389
     22 H1          1.4925    1.2152    2.2869 H         1 <0>         0.1251
     23 H2          1.4841    3.6723    2.3360 H         1 <0>         0.1245
     24 H3         -0.3305    4.9351    1.3120 H         1 <0>         0.1191
     25 H4         -0.3123   -0.0181    1.2124 H         1 <0>         0.1304
     26 H5         -2.4537   -0.0020   -0.0284 H         1 <0>         0.1291
     27 H6         -4.2730    1.2468   -1.0536 H         1 <0>         0.1283
     28 H7         -4.2981    3.7029   -1.0131 H         1 <0>         0.1494
     29 H8         -1.6589    5.7709    0.1525 H         1 <0>         0.4091
     30 H9         -2.8435    7.7612   -0.2090 H         1 <0>         0.4094
     31 H10        -5.9323    6.4198    0.9603 H         1 <0>         0.1563
     32 H11        -8.0701    7.6384    0.9933 H         1 <0>         0.1345
     33 H12        -8.2443    9.8521   -0.0680 H         1 <0>         0.1336
     34 H13        -6.2804   10.8571   -1.1585 H         1 <0>         0.1341
@<TRIPOS>BOND
     1    1    6 ar
     2    1    2 ar
     3    1   22 1
     4    2    3 ar
     5    2   23 1
     6    3    4 ar
     7    3   24 1
     8    4   10 ar
     9    4    5 ar
    10    5    6 ar
    11    5    7 ar
    12    6   25 1
    13    7    8 ar
    14    7   26 1
    15    8    9 ar
    16    8   27 1
    17    9   10 ar
    18    9   28 1
    19   10   11 1
    20   11   12 am
    21   11   29 1
    22   12   13 2
    23   12   14 am
    24   14   15 1
    25   14   30 1
    26   15   20 ar
    27   15   16 ar
    28   16   17 ar
    29   16   31 1
    30   17   18 ar
    31   17   32 1
    32   18   19 ar
    33   18   33 1
    34   19   20 ar
    35   19   34 1
    36   20   21 1
@<TRIPOS>MOLECULE
ZINC35656968
   65    69     0     0     0
SMALL
USER_CHARGES

@<TRIPOS>ATOM
      1 C1         -0.7909    1.1629    0.1644 C.3       1 <0>        -0.0756
      2 C2         -0.1970   -0.2208    0.1026 C.2       1 <0>         0.0899
      3 C3          0.1859   -0.9060   -1.0689 C.2       1 <0>        -0.2053
      4 C4          0.6752   -2.1245   -0.6905 C.2       1 <0>         0.0420
      5 N1          0.6001   -2.1940    0.6536 N.pl3     1 <0>        -0.3673
      6 N2          0.0581   -0.9925    1.1254 N.2       1 <0>        -0.2916
      7 C5          1.0186   -3.3296    1.4791 C.3       1 <0>         0.0979
      8 C6          0.0771   -0.3989   -2.4541 C.2       1 <0>        -0.0581
      9 C7          0.1433   -1.2423   -3.4767 C.2       1 <0>        -0.1584
     10 C8          0.2425   -0.8646   -4.9394 C.3       1 <0>        -0.0869
     11 C9         -0.2776   -2.0922   -5.7290 C.3       1 <0>        -0.0674
     12 H1          0.2512   -2.1723   -6.6980 H         1 <0>         0.0790
     13 C10        -1.7697   -1.8956   -5.9676 C.3       1 <0>        -0.0642
     14 H2         -1.8938   -1.2032   -6.8133 H         1 <0>         0.0619
     15 C11        -2.4524   -1.2867   -4.7448 C.3       1 <0>        -0.0869
     16 C12        -3.9318   -1.1925   -4.9916 C.2       1 <0>        -0.1559
     17 C13        -4.5685   -1.9500   -5.8357 C.2       1 <0>        -0.0967
     18 C14        -6.0695   -1.7542   -5.9725 C.3       1 <0>        -0.1198
     19 C15        -6.7473   -3.1148   -5.7829 C.3       1 <0>         0.1091
     20 H3         -7.8206   -3.0107   -5.9419 H         1 <0>         0.0514
     21 C16        -6.1753   -4.1093   -6.7936 C.3       1 <0>        -0.1133
     22 C17        -4.6841   -4.3221   -6.5407 C.3       1 <0>        -0.1031
     23 C18        -3.9131   -3.0083   -6.6729 C.3       1 <0>        -0.0051
     24 C19        -2.4489   -3.2147   -6.3228 C.3       1 <0>        -0.0666
     25 H4         -1.9400   -3.6497   -7.1903 H         1 <0>         0.0655
     26 C20        -2.2924   -4.1625   -5.1313 C.3       1 <0>        -0.1097
     27 C21        -0.8116   -4.4928   -4.9796 C.3       1 <0>        -0.0916
     28 C22         0.0735   -3.2803   -4.8339 C.3       1 <0>        -0.0362
     29 C23         0.1392   -2.7562   -3.3941 C.3       1 <0>         0.1458
     30 H5          1.0779   -3.0966   -2.9263 H         1 <0>         0.0527
     31 O1         -0.9582   -3.2280   -2.6106 O.3       1 <0>        -0.5493
     32 C24         1.5036   -3.7343   -5.2156 C.3       1 <0>        -0.1504
     33 C25        -3.9744   -2.5640   -8.1401 C.3       1 <0>        -0.1444
     34 O2         -6.5071   -3.5865   -4.4555 O.3       1 <0>        -0.5583
     35 H6          0.0092    1.8983    0.2476 H         1 <0>         0.0788
     36 H7         -1.3657    1.3523   -0.7422 H         1 <0>         0.0797
     37 H8         -1.4459    1.2387    1.0324 H         1 <0>         0.0748
     38 H9          1.0531   -2.8927   -1.3489 H         1 <0>         0.1810
     39 H10         2.0657   -3.2103    1.7573 H         1 <0>         0.0770
     40 H11         0.4057   -3.3695    2.3796 H         1 <0>         0.0927
     41 H12         0.8956   -4.2539    0.9147 H         1 <0>         0.0904
     42 H13        -0.0564    0.6577   -2.6333 H         1 <0>         0.1247
     43 H14        -0.3627    0.0142   -5.1516 H         1 <0>         0.0773
     44 H15         1.2835   -0.6639   -5.2021 H         1 <0>         0.0741
     45 H16        -2.2735   -1.8978   -3.8643 H         1 <0>         0.0988
     46 H17        -2.0666   -0.2788   -4.5694 H         1 <0>         0.0624
     47 H18        -4.4955   -0.4555   -4.4379 H         1 <0>         0.0956
     48 H19        -6.4194   -1.0626   -5.2048 H         1 <0>         0.0669
     49 H20        -6.3077   -1.3565   -6.9567 H         1 <0>         0.0773
     50 H21        -6.6947   -5.0672   -6.6783 H         1 <0>         0.0649
     51 H22        -6.3452   -3.7458   -7.8043 H         1 <0>         0.0745
     52 H23        -4.5540   -4.7231   -5.5332 H         1 <0>         0.0791
     53 H24        -4.2945   -5.0439   -7.2616 H         1 <0>         0.0595
     54 H25        -2.6761   -3.7009   -4.2258 H         1 <0>         0.0821
     55 H26        -2.8397   -5.0901   -5.3223 H         1 <0>         0.0591
     56 H27        -0.6780   -5.1353   -4.1062 H         1 <0>         0.0636
     57 H28        -0.4865   -5.0545   -5.8615 H         1 <0>         0.0519
     58 H29        -1.0120   -2.8317   -1.7302 H         1 <0>         0.3719
     59 H30         2.2011   -2.9126   -5.0531 H         1 <0>         0.0559
     60 H31         1.7924   -4.5838   -4.5967 H         1 <0>         0.0554
     61 H32         1.5241   -4.0260   -6.2656 H         1 <0>         0.0612
     62 H33        -3.4485   -1.6161   -8.2549 H         1 <0>         0.0534
     63 H34        -3.5029   -3.3195   -8.7685 H         1 <0>         0.0548
     64 H35        -5.0153   -2.4406   -8.4392 H         1 <0>         0.0541
     65 H36        -6.8439   -3.0013   -3.7632 H         1 <0>         0.3740
@<TRIPOS>BOND
     1    1    2 1
     2    1   35 1
     3    1   36 1
     4    1   37 1
     5    2    6 2
     6    2    3 1
     7    3    4 2
     8    3    8 1
     9    4    5 1
    10    4   38 1
    11    5    6 1
    12    5    7 1
    13    7   39 1
    14    7   40 1
    15    7   41 1
    16    8    9 2
    17    8   42 1
    18    9   29 1
    19    9   10 1
    20   10   11 1
    21   10   43 1
    22   10   44 1
    23   11   12 1
    24   11   28 1
    25   11   13 1
    26   13   14 1
    27   13   24 1
    28   13   15 1
    29   15   16 1
    30   15   45 1
    31   15   46 1
    32   16   17 2
    33   16   47 1
    34   17   23 1
    35   17   18 1
    36   18   19 1
    37   18   48 1
    38   18   49 1
    39   19   20 1
    40   19   21 1
    41   19   34 1
    42   21   22 1
    43   21   50 1
    44   21   51 1
    45   22   23 1
    46   22   52 1
    47   22   53 1
    48   23   24 1
    49   23   33 1
    50   24   25 1
    51   24   26 1
    52   26   27 1
    53   26   54 1
    54   26   55 1
    55   27   28 1
    56   27   56 1
    57   27   57 1
    58   28   29 1
    59   28   32 1
    60   29   30 1
    61   29   31 1
    62   31   58 1
    63   32   59 1
    64   32   60 1
    65   32   61 1
    66   33   62 1
    67   33   63 1
    68   33   64 1
    69   34   65 1
@<TRIPOS>MOLECULE
ZINC40713959
   24    25     0     0     0
SMALL
USER_CHARGES

@<TRIPOS>ATOM
      1 C1          0.6527    0.3647    1.3271 C.ar      1 <0>        -0.0875
      2 C2          1.8410    1.0681    1.2681 C.ar      1 <0>        -0.0795
      3 C3          2.3796    1.4162    0.0389 C.ar      1 <0>         0.0810
      4 C4          1.7228    1.0568   -1.1318 C.ar      1 <0>         0.1116
      5 C5          0.5341    0.3531   -1.0675 C.ar      1 <0>        -0.1170
      6 C6         -0.0002    0.0075    0.1613 C.ar      1 <0>        -0.0612
      7 Br1        -1.6258   -0.9548    0.2468 Br        1 <0>        -0.0250
      8 F1          2.2446    1.3948   -2.3313 F         1 <0>        -0.1224
      9 O1          3.5482    2.1084   -0.0210 O.3       1 <0>        -0.2426
     10 C7          3.4835    3.4611   -0.1180 C.ar      1 <0>         0.2569
     11 C8          4.6593    4.2030   -0.2406 C.ar      1 <0>         0.1806
     12 C9          4.5756    5.5862   -0.3392 C.ar      1 <0>        -0.1090
     13 C10         3.3185    6.1757   -0.3116 C.ar      1 <0>        -0.1205
     14 C11         2.1989    5.3765   -0.1879 C.ar      1 <0>         0.1092
     15 N1          2.3077    4.0635   -0.1010 N.ar      1 <0>        -0.4801
     16 Br2         3.1415    8.0539   -0.4414 Br        1 <0>        -0.0250
     17 N2          5.9038    3.5634   -0.2633 N.pl3     1 <0>        -0.8592
     18 H1          0.2357    0.0898    2.2847 H         1 <0>         0.1493
     19 H2          2.3496    1.3467    2.1792 H         1 <0>         0.1493
     20 H3          0.0226    0.0732   -1.9765 H         1 <0>         0.1534
     21 H4          5.4668    6.1886   -0.4348 H         1 <0>         0.1534
     22 H5          1.2199    5.8319   -0.1658 H         1 <0>         0.1691
     23 H6          5.9538    2.5972   -0.1936 H         1 <0>         0.4097
     24 H7          6.7163    4.0862   -0.3488 H         1 <0>         0.4055
@<TRIPOS>BOND
     1    1    6 ar
     2    1    2 ar
     3    1   18 1
     4    2    3 ar
     5    2   19 1
     6    3    4 ar
     7    3    9 1
     8    4    5 ar
     9    4    8 1
    10    5    6 ar
    11    5   20 1
    12    6    7 1
    13    9   10 1
    14   10   15 ar
    15   10   11 ar
    16   11   12 ar
    17   11   17 1
    18   12   13 ar
    19   12   21 1
    20   13   14 ar
    21   13   16 1
    22   14   15 ar
    23   14   22 1
    24   17   23 1
    25   17   24 1
@<TRIPOS>MOLECULE
ZINC43740487
   57    60     0     0     0
SMALL
USER_CHARGES

@<TRIPOS>ATOM
      1 C1         -1.2431    0.5114    0.4702 C.3       1 <0>        -0.0972
      2 C2          0.0391   -0.0504   -0.0880 C.2       1 <0>         0.1846
      3 N1          1.1558    0.1352    0.5417 N.2       1 <0>        -0.3307
      4 O1          2.3430   -0.4783    0.0735 O.3       1 <0>        -0.4025
      5 C3          0.0225   -0.8084   -1.3462 C.2       1 <0>        -0.1238
      6 C4          0.0882   -0.2806   -2.5823 C.2       1 <0>        -0.1336
      7 C5          0.0752   -1.4006   -3.6228 C.3       1 <0>        -0.0900
      8 C6          0.6458   -2.5794   -2.8213 C.3       1 <0>        -0.0791
      9 H1          1.7295   -2.5095   -2.7276 H         1 <0>         0.0810
     10 C7         -0.0634   -2.2926   -1.4676 C.3       1 <0>        -0.0189
     11 C8          0.5957   -3.1592   -0.4211 C.3       1 <0>        -0.0978
     12 C9          0.2978   -4.6225   -0.7958 C.3       1 <0>        -0.1198
     13 C10         0.7708   -4.9494   -2.2077 C.3       1 <0>        -0.0683
     14 H2          1.8585   -4.8847   -2.2362 H         1 <0>         0.0649
     15 C11         0.2194   -3.9671   -3.2594 C.3       1 <0>        -0.0745
     16 H3         -0.8682   -4.0295   -3.2952 H         1 <0>         0.0871
     17 C12         0.8221   -4.3019   -4.6254 C.3       1 <0>        -0.1124
     18 C13         0.4121   -5.7208   -5.0216 C.3       1 <0>        -0.1153
     19 C14         0.9326   -6.7202   -3.9853 C.3       1 <0>        -0.0661
     20 H4          2.0215   -6.6819   -3.9564 H         1 <0>         0.0713
     21 C15         0.3539   -6.3744   -2.5793 C.3       1 <0>        -0.0474
     22 C16         0.9231   -7.3407   -1.5363 C.3       1 <0>        -0.1097
     23 C17         0.4465   -8.7640   -1.8396 C.3       1 <0>        -0.0631
     24 C18         0.8292   -9.1007   -3.2642 C.2       1 <0>         0.1367
     25 N2          1.4712  -10.1733   -3.5370 N.2       1 <0>        -0.3445
     26 O2          1.8192  -10.4687   -4.8774 O.3       1 <0>        -0.4164
     27 C19         0.4789   -8.1277   -4.3925 C.3       1 <0>        -0.1117
     28 C20        -1.1729   -6.4733   -2.5901 C.3       1 <0>        -0.1517
     29 C21        -1.5332   -2.7019   -1.5825 C.3       1 <0>        -0.1533
     30 H5         -1.4002    1.5165    0.0788 H         1 <0>         0.0854
     31 H6         -2.0770   -0.1268    0.1779 H         1 <0>         0.0857
     32 H7         -1.1795    0.5507    1.5576 H         1 <0>         0.0811
     33 H8          3.1083   -0.3445    0.6493 H         1 <0>         0.3986
     34 H9          0.1419    0.7747   -2.8056 H         1 <0>         0.1255
     35 H10        -0.9408   -1.6112   -3.9565 H         1 <0>         0.0829
     36 H11         0.7188   -1.1555   -4.4677 H         1 <0>         0.0704
     37 H12         1.6720   -2.9873   -0.4200 H         1 <0>         0.0674
     38 H13         0.1813   -2.9353    0.5619 H         1 <0>         0.0566
     39 H14         0.8044   -5.2806   -0.0898 H         1 <0>         0.0641
     40 H15        -0.7767   -4.7943   -0.7320 H         1 <0>         0.0712
     41 H16         0.4537   -3.5953   -5.3691 H         1 <0>         0.0643
     42 H17         1.9089   -4.2392   -4.5692 H         1 <0>         0.0611
     43 H18        -0.6750   -5.7833   -5.0710 H         1 <0>         0.0662
     44 H19         0.8325   -5.9599   -5.9984 H         1 <0>         0.0618
     45 H20         2.0121   -7.3083   -1.5677 H         1 <0>         0.0663
     46 H21         0.5802   -7.0469   -0.5442 H         1 <0>         0.0812
     47 H22         0.9245   -9.4651   -1.1555 H         1 <0>         0.0840
     48 H23        -0.6362   -8.8207   -1.7270 H         1 <0>         0.0944
     49 H24         2.3023  -11.2995   -4.9844 H         1 <0>         0.4012
     50 H25        -0.6029   -8.1386   -4.5256 H         1 <0>         0.0831
     51 H26         0.9665   -8.4132   -5.3247 H         1 <0>         0.0849
     52 H27        -1.5771   -5.7741   -3.3220 H         1 <0>         0.0619
     53 H28        -1.4694   -7.4882   -2.8548 H         1 <0>         0.0581
     54 H29        -1.5598   -6.2280   -1.6010 H         1 <0>         0.0606
     55 H30        -2.0000   -2.1540   -2.4011 H         1 <0>         0.0563
     56 H31        -1.5982   -3.7722   -1.7779 H         1 <0>         0.0754
     57 H32        -2.0486   -2.4708   -0.6502 H         1 <0>         0.0526
@<TRIPOS>BOND
     1    1    2 1
     2    1   30 1
     3    1   31 1
     4    1   32 1
     5    2    3 2
     6    2    5 1
     7    3    4 1
     8    4   33 1
     9    5   10 1
    10    5    6 2
    11    6    7 1
    12    6   34 1
    13    7    8 1
    14    7   35 1
    15    7   36 1
    16    8    9 1
    17    8   15 1
    18    8   10 1
    19   10   11 1
    20   10   29 1
    21   11   12 1
    22   11   37 1
    23   11   38 1
    24   12   13 1
    25   12   39 1
    26   12   40 1
    27   13   14 1
    28   13   21 1
    29   13   15 1
    30   15   16 1
    31   15   17 1
    32   17   18 1
    33   17   41 1
    34   17   42 1
    35   18   19 1
    36   18   43 1
    37   18   44 1
    38   19   20 1
    39   19   27 1
    40   19   21 1
    41   21   22 1
    42   21   28 1
    43   22   23 1
    44   22   45 1
    45   22   46 1
    46   23   24 1
    47   23   47 1
    48   23   48 1
    49   24   25 2
    50   24   27 1
    51   25   26 1
    52   26   49 1
    53   27   50 1
    54   27   51 1
    55   28   52 1
    56   28   53 1
    57   28   54 1
    58   29   55 1
    59   29   56 1
    60   29   57 1
@<TRIPOS>MOLECULE
ZINC04416923
   26    27     0     0     0
SMALL
USER_CHARGES
3,7-bis(trichloromethyl)-4,8-dioxabicyclo[3.3.0]octane-1,5-diol
@<TRIPOS>ATOM
      1 C1         -3.1183    3.1734    3.0089 C.3       1 <0>        -0.1973
      2 C2         -2.4821    3.5555    4.3696 C.3       1 <0>         0.0829
      3 H1         -3.0029    3.0606    5.1892 H         1 <0>         0.1262
      4 O1         -1.1204    3.0645    4.2654 O.3       1 <0>        -0.3484
      5 C3         -1.1855    1.7982    3.5869 C.3       1 <0>         0.2696
      6 C4         -2.4731    1.7978    2.7249 C.3       1 <0>         0.2849
      7 O2         -2.0692    1.7387    1.3483 O.3       1 <0>        -0.3483
      8 C5         -0.7385    2.2922    1.2707 C.3       1 <0>         0.0865
      9 H2         -0.7743    3.3814    1.2885 H         1 <0>         0.1211
     10 C6         -0.0417    1.7483    2.5435 C.3       1 <0>        -0.1782
     11 C7         -0.0224    1.7987    0.0119 C.3       1 <0>         0.1363
     12 Cl1         0.0021   -0.0041    0.0020 Cl        1 <0>        -0.0673
     13 Cl2         1.6691    2.4228   -0.0009 Cl        1 <0>        -0.0683
     14 Cl3        -0.8944    2.3960   -1.4488 Cl        1 <0>        -0.0700
     15 O3         -3.3458    0.7233    3.0796 O.3       1 <0>        -0.4972
     16 O4         -1.1393    0.6958    4.4950 O.3       1 <0>        -0.5137
     17 C8         -2.4954    5.0732    4.5633 C.3       1 <0>         0.1376
     18 Cl4        -4.1968    5.6688    4.5264 Cl        1 <0>        -0.0681
     19 Cl5        -1.7496    5.4827    6.1529 Cl        1 <0>        -0.0687
     20 Cl6        -1.5556    5.8564    3.2389 Cl        1 <0>        -0.0756
     21 H3         -2.8502    3.8955    2.2376 H         1 <0>         0.1120
     22 H4         -4.2012    3.0846    3.0964 H         1 <0>         0.1194
     23 H5          0.3009    0.7248    2.3914 H         1 <0>         0.1200
     24 H6          0.7860    2.3932    2.8387 H         1 <0>         0.1203
     25 H7         -4.1615    0.6915    2.5612 H         1 <0>         0.3927
     26 H8         -0.3282    0.6521    5.0197 H         1 <0>         0.3914
@<TRIPOS>BOND
     1    1    6 1
     2    1    2 1
     3    1   21 1
     4    1   22 1
     5    2    3 1
     6    2    4 1
     7    2   17 1
     8    4    5 1
     9    5   10 1
    10    5    6 1
    11    5   16 1
    12    6    7 1
    13    6   15 1
    14    7    8 1
    15    8    9 1
    16    8   10 1
    17    8   11 1
    18   10   23 1
    19   10   24 1
    20   11   12 1
    21   11   13 1
    22   11   14 1
    23   15   25 1
    24   16   26 1
    25   17   18 1
    26   17   19 1
    27   17   20 1
@<TRIPOS>MOLECULE
ZINC01688058
   37    39     0     0     0
SMALL
USER_CHARGES
N-[9-(2,2,2-trifluoroacetyl)amino-9H-fluoren-2-yl]acetamide
@<TRIPOS>ATOM
      1 C1         -1.2509    2.0723    0.5974 C.3       1 <0>        -0.1722
      2 C2          0.0680    1.3431    0.5941 C.2       1 <0>         0.5118
      3 O1          0.1603    0.2543    1.1205 O.2       1 <0>        -0.5228
      4 N1          1.1435    1.8984    0.0013 N.am      1 <0>        -0.6744
      5 C3          2.3879    1.2651    0.0763 C.ar      1 <0>         0.1495
      6 C4          2.4641   -0.1228    0.0622 C.ar      1 <0>        -0.1050
      7 C5          3.6884   -0.7501    0.1354 C.ar      1 <0>        -0.0754
      8 C6          4.8587    0.0076    0.2242 C.ar      1 <0>        -0.0526
      9 C7          4.7753    1.3979    0.2379 C.ar      1 <0>        -0.0976
     10 C8          3.5502    2.0228    0.1592 C.ar      1 <0>        -0.1076
     11 C9          6.1815    1.9366    0.3386 C.3       1 <0>         0.2355
     12 H1          6.4124    2.5484   -0.5335 H         1 <0>         0.1243
     13 C10         7.0877    0.7308    0.3820 C.ar      1 <0>        -0.1133
     14 C11         6.2819   -0.4023    0.3129 C.ar      1 <0>        -0.0454
     15 C12         6.8749   -1.6664    0.3361 C.ar      1 <0>        -0.0960
     16 C13         8.2463   -1.7823    0.4250 C.ar      1 <0>        -0.1068
     17 C14         9.0387   -0.6502    0.4927 C.ar      1 <0>        -0.1127
     18 C15         8.4580    0.6054    0.4716 C.ar      1 <0>        -0.0809
     19 N2          6.3328    2.7258    1.5636 N.am      1 <0>        -0.6868
     20 C16         7.2742    3.6877    1.6336 C.2       1 <0>         0.4863
     21 O2          7.9961    3.9001    0.6824 O.2       1 <0>        -0.4699
     22 C17         7.4298    4.4994    2.8937 C.3       1 <0>         0.4526
     23 F1          8.4632    5.4275    2.7259 F         1 <0>        -0.1500
     24 F2          6.2351    5.1755    3.1635 F         1 <0>        -0.1660
     25 F3          7.7357    3.6489    3.9615 F         1 <0>        -0.1646
     26 H2         -1.3173    2.6990    1.4867 H         1 <0>         0.1000
     27 H3         -1.3231    2.6965   -0.2932 H         1 <0>         0.0843
     28 H4         -2.0661    1.3487    0.6011 H         1 <0>         0.0996
     29 H5          1.0544    2.7373   -0.4773 H         1 <0>         0.4144
     30 H6          1.5609   -0.7110   -0.0060 H         1 <0>         0.1470
     31 H7          3.7435   -1.8286    0.1245 H         1 <0>         0.1325
     32 H8          3.4925    3.1012    0.1662 H         1 <0>         0.1322
     33 H9          6.2599   -2.5527    0.2842 H         1 <0>         0.1270
     34 H10         8.7034   -2.7606    0.4421 H         1 <0>         0.1303
     35 H11        10.1121   -0.7468    0.5625 H         1 <0>         0.1307
     36 H12         9.0784    1.4878    0.5249 H         1 <0>         0.1269
     37 H13         5.7554    2.5559    2.3243 H         1 <0>         0.4152
@<TRIPOS>BOND
     1    1    2 1
     2    1   26 1
     3    1   27 1
     4    1   28 1
     5    2    3 2
     6    2    4 am
     7    4    5 1
     8    4   29 1
     9    5   10 ar
    10    5    6 ar
    11    6    7 ar
    12    6   30 1
    13    7    8 ar
    14    7   31 1
    15    8   14 1
    16    8    9 ar
    17    9   10 ar
    18    9   11 1
    19   10   32 1
    20   11   12 1
    21   11   13 1
    22   11   19 1
    23   13   18 ar
    24   13   14 ar
    25   14   15 ar
    26   15   16 ar
    27   15   33 1
    28   16   17 ar
    29   16   34 1
    30   17   18 ar
    31   17   35 1
    32   18   36 1
    33   19   20 am
    34   19   37 1
    35   20   21 2
    36   20   22 1
    37   22   23 1
    38   22   24 1
    39   22   25 1
@<TRIPOS>MOLECULE
ZINC19852820
   36    38     0     0     0
SMALL
USER_CHARGES
(5Z)-2-amino-5-[[1-(4-bromophenyl)-2,5-dimethyl-pyrrol-3-yl]methylene]thiazol-4-one
@<TRIPOS>ATOM
      1 C1          3.6342    0.6255   -0.0293 C.3       1 <0>        -0.0904
      2 C2          2.1282    0.6791   -0.0146 C.2       1 <0>         0.0265
      3 C3          1.3892    1.8015   -0.0015 C.2       1 <0>        -0.1530
      4 C4         -0.0167    1.3775    0.0096 C.2       1 <0>        -0.1807
      5 C5          0.0021   -0.0041    0.0020 C.2       1 <0>         0.0913
      6 N1          1.2972   -0.4060   -0.0125 N.pl3     1 <0>        -0.3975
      7 C6          1.7223   -1.7415   -0.0230 C.ar      1 <0>         0.1254
      8 C7          1.4649   -2.5619    1.0672 C.ar      1 <0>        -0.1025
      9 C8          1.8803   -3.8789    1.0521 C.ar      1 <0>        -0.0765
     10 C9          2.5624   -4.3780   -0.0434 C.ar      1 <0>        -0.0832
     11 C10         2.8247   -3.5612   -1.1289 C.ar      1 <0>        -0.0764
     12 C11         2.4066   -2.2449   -1.1213 C.ar      1 <0>        -0.1008
     13 Br1         3.1365   -6.1797   -0.0573 Br        1 <0>        -0.0340
     14 C12        -1.2051   -0.9061    0.0091 C.3       1 <0>        -0.1023
     15 C13        -1.1993    2.2437    0.0202 C.2       1 <0>         0.1002
     16 C14        -1.0520    3.5949    0.0268 C.2       1 <0>        -0.2490
     17 C15        -2.0781    4.6594    0.0377 C.2       1 <0>         0.5507
     18 O1         -3.2720    4.4025    0.0418 O.2       1 <0>        -0.4769
     19 N2         -1.6357    5.8981    0.0422 N.2       1 <0>        -0.6747
     20 C16        -0.3450    6.1903    0.0374 C.2       1 <0>         0.4874
     21 S1          0.4375    4.5848    0.0327 S.3       1 <0>        -0.0584
     22 N3          0.2479    7.4262    0.0411 N.pl3     1 <0>        -0.7866
     23 H1          4.0375    1.6489   -0.0276 H         1 <0>         0.0872
     24 H2          3.9735    0.0991   -0.9336 H         1 <0>         0.0699
     25 H3          3.9907    0.0894    0.8626 H         1 <0>         0.0701
     26 H4          1.7573    2.8168    0.0001 H         1 <0>         0.1523
     27 H5          0.9365   -2.1716    1.9244 H         1 <0>         0.1407
     28 H6          1.6761   -4.5188    1.8979 H         1 <0>         0.1448
     29 H7          3.3573   -3.9531   -1.9828 H         1 <0>         0.1446
     30 H8          2.6113   -1.6079   -1.9690 H         1 <0>         0.1403
     31 H9         -0.8781   -1.9563    0.0002 H         1 <0>         0.0714
     32 H10        -1.8180   -0.7053   -0.8820 H         1 <0>         0.0896
     33 H11        -1.8003   -0.7150    0.9142 H         1 <0>         0.0900
     34 H12        -2.2059    1.8002    0.0228 H         1 <0>         0.1580
     35 H13         1.3447    7.5101    0.0361 H         1 <0>         0.4532
     36 H14        -0.3731    8.3341    0.0490 H         1 <0>         0.4492
@<TRIPOS>BOND
     1    1    2 1
     2    1   23 1
     3    1   24 1
     4    1   25 1
     5    2    6 1
     6    2    3 2
     7    3    4 1
     8    3   26 1
     9    4    5 2
    10    4   15 1
    11    5    6 1
    12    5   14 1
    13    6    7 1
    14    7   12 ar
    15    7    8 ar
    16    8    9 ar
    17    8   27 1
    18    9   10 ar
    19    9   28 1
    20   10   11 ar
    21   10   13 1
    22   11   12 ar
    23   11   29 1
    24   12   30 1
    25   14   31 1
    26   14   32 1
    27   14   33 1
    28   15   16 2
    29   15   34 1
    30   16   21 1
    31   16   17 1
    32   17   18 2
    33   17   19 1
    34   19   20 2
    35   20   21 1
    36   20   22 1
    37   22   35 1
    38   22   36 1
@<TRIPOS>MOLECULE
ZINC39747500
   44    48     0     0     0
SMALL
USER_CHARGES

@<TRIPOS>ATOM
      1 C1         -0.4414    1.2082   -1.6407 C.ar      1 <0>        -0.1370
      2 C2         -0.3629   -0.1543   -1.3924 C.ar      1 <0>        -0.0975
      3 C3         -1.3716   -0.8037   -0.7144 C.ar      1 <0>        -0.1255
      4 C4         -2.4813   -0.0913   -0.2725 C.ar      1 <0>         0.0864
      5 N1         -3.6223   -0.4511    0.4147 N.pl3     1 <0>        -0.5784
      6 C5         -4.4170    0.6285    0.6098 C.2       1 <0>         0.1071
      7 C6         -3.8355    1.7343    0.0631 C.2       1 <0>        -0.2237
      8 C7         -2.5591    1.2880   -0.5247 C.ar      1 <0>        -0.0637
      9 C8         -1.5300    1.9325   -1.2060 C.ar      1 <0>        -0.0674
     10 C9         -4.3749    3.1009    0.0601 C.2       1 <0>         0.6094
     11 O1         -3.6208    4.0527    0.1369 O.2       1 <0>        -0.5337
     12 N2         -5.7049    3.3002   -0.0279 N.am      1 <0>        -0.6078
     13 C10        -6.7337    2.2443   -0.0297 C.3       1 <0>         0.0957
     14 C11        -7.9511    2.8780   -0.7480 C.3       1 <0>        -0.1292
     15 C12        -7.8871    4.3416   -0.2370 C.3       1 <0>        -0.1265
     16 C13        -6.3705    4.6071   -0.1314 C.3       1 <0>         0.1381
     17 H1         -6.0245    5.1296   -1.0232 H         1 <0>         0.0923
     18 C14        -6.0713    5.4435    1.1143 C.3       1 <0>         0.1813
     19 H2         -5.0080    5.6727    1.1838 H         1 <0>         0.1210
     20 N3         -6.8789    6.6707    1.1334 N.pl3     1 <0>        -0.7347
     21 C15        -7.7762    6.8353    2.1874 C.ar      1 <0>         0.1845
     22 C16        -8.6279    7.9391    2.3725 C.ar      1 <0>        -0.1648
     23 C17        -9.4803    8.0083    3.4497 C.ar      1 <0>        -0.0744
     24 C18        -9.5293    6.9940    4.3881 C.ar      1 <0>        -0.1525
     25 C19        -8.7018    5.8946    4.2314 C.ar      1 <0>        -0.0422
     26 C20        -7.8488    5.8266    3.1531 C.ar      1 <0>        -0.1446
     27 S1         -6.6669    4.6011    2.6349 S.3       1 <0>        -0.1323
     28 H3          0.3565    1.7044   -2.1733 H         1 <0>         0.1266
     29 H4          0.4969   -0.7115   -1.7341 H         1 <0>         0.1286
     30 H5         -1.3006   -1.8649   -0.5267 H         1 <0>         0.1231
     31 H6         -5.3680    0.6155    1.1214 H         1 <0>         0.1798
     32 H7         -3.8268   -1.3504    0.7153 H         1 <0>         0.4216
     33 H8         -1.5887    2.9933   -1.4002 H         1 <0>         0.1280
     34 H9         -6.3808    1.3717   -0.5794 H         1 <0>         0.0820
     35 H10        -6.9968    1.9693    0.9917 H         1 <0>         0.0761
     36 H11        -7.8310    2.8365   -1.8306 H         1 <0>         0.0777
     37 H12        -8.8798    2.3971   -0.4408 H         1 <0>         0.0882
     38 H13        -8.3509    5.0205   -0.9526 H         1 <0>         0.0817
     39 H14        -8.3594    4.4294    0.7414 H         1 <0>         0.0885
     40 H15        -6.7908    7.3417    0.4384 H         1 <0>         0.4121
     41 H16        -8.6121    8.7471    1.6560 H         1 <0>         0.1209
     42 H17       -10.1223    8.8692    3.5643 H         1 <0>         0.1267
     43 H18       -10.2023    7.0582    5.2303 H         1 <0>         0.1311
     44 H19        -8.7258    5.0919    4.9536 H         1 <0>         0.1274
@<TRIPOS>BOND
     1    1    2 ar
     2    1   28 1
     3    1    9 ar
     4    2    3 ar
     5    2   29 1
     6    3    4 ar
     7    3   30 1
     8    4    5 1
     9    4    8 ar
    10    5   32 1
    11    5    6 1
    12    6    7 2
    13    6   31 1
    14    7    8 1
    15    7   10 1
    16    8    9 ar
    17    9   33 1
    18   10   11 2
    19   10   12 am
    20   12   16 1
    21   12   13 1
    22   13   14 1
    23   13   34 1
    24   13   35 1
    25   14   15 1
    26   14   36 1
    27   14   37 1
    28   15   16 1
    29   15   38 1
    30   15   39 1
    31   16   17 1
    32   16   18 1
    33   18   19 1
    34   18   27 1
    35   18   20 1
    36   20   21 1
    37   20   40 1
    38   21   26 ar
    39   21   22 ar
    40   22   23 ar
    41   22   41 1
    42   23   24 ar
    43   23   42 1
    44   24   25 ar
    45   24   43 1
    46   25   26 ar
    47   25   44 1
    48   26   27 1
@<TRIPOS>MOLECULE
ZINC44731507
   36    37     0     0     0
SMALL
USER_CHARGES

@<TRIPOS>ATOM
      1 C1         -0.0184    1.5028    0.0103 C.3       1 <0>        -0.0765
      2 C2          0.0021   -0.0041    0.0020 C.2       1 <0>        -0.0062
      3 C3         -1.0783   -0.8055    0.0027 C.2       1 <0>        -0.2074
      4 C4         -0.6011   -2.1363   -0.0068 C.2       1 <0>        -0.1884
      5 C5          0.7423   -2.0686   -0.0126 C.2       1 <0>         0.0026
      6 O1          1.1020   -0.7746   -0.0131 O.3       1 <0>        -0.1703
      7 C6          1.6840   -3.2450   -0.0226 C.3       1 <0>        -0.0792
      8 C7         -1.4371   -3.3901   -0.0093 C.3       1 <0>         0.2195
      9 H1         -0.9807   -4.1325    0.6454 H         1 <0>         0.0973
     10 C8         -1.5182   -3.9462   -1.4323 C.3       1 <0>        -0.1593
     11 N1         -2.7857   -3.0788    0.4709 N.am      1 <0>        -0.7190
     12 C9         -3.5417   -4.0445    1.0297 C.2       1 <0>         0.5601
     13 O2         -3.1045   -5.1742    1.1353 O.2       1 <0>        -0.5147
     14 C10        -4.8994   -3.7311    1.5132 C.ar      1 <0>        -0.1534
     15 C11        -5.4079   -2.4355    1.3884 C.ar      1 <0>        -0.0649
     16 C12        -6.6768   -2.1489    1.8413 C.ar      1 <0>        -0.1089
     17 C13        -7.4531   -3.1409    2.4212 C.ar      1 <0>        -0.0508
     18 C14        -6.9620   -4.4259    2.5509 C.ar      1 <0>        -0.1280
     19 C15        -5.6890   -4.7326    2.0950 C.ar      1 <0>         0.1792
     20 O3         -5.2075   -5.9950    2.2166 O.3       1 <0>        -0.4713
     21 Br1        -9.1933   -2.7326    3.0384 Br        1 <0>        -0.0318
     22 H2          1.0042    1.8801    0.0026 H         1 <0>         0.0769
     23 H3         -0.5455    1.8639   -0.8728 H         1 <0>         0.0866
     24 H4         -0.5286    1.8543    0.9071 H         1 <0>         0.0865
     25 H5         -2.1119   -0.4924    0.0097 H         1 <0>         0.1444
     26 H6          1.9064   -3.5237   -1.0527 H         1 <0>         0.0847
     27 H7          2.6082   -2.9750    0.4883 H         1 <0>         0.0790
     28 H8          1.2186   -4.0873    0.4893 H         1 <0>         0.0903
     29 H9         -0.5148   -4.1778   -1.7896 H         1 <0>         0.0686
     30 H10        -2.1229   -4.8531   -1.4342 H         1 <0>         0.0667
     31 H11        -1.9746   -3.2038   -2.0871 H         1 <0>         0.0592
     32 H12        -3.1346   -2.1776    0.3867 H         1 <0>         0.3984
     33 H13        -4.8066   -1.6598    0.9378 H         1 <0>         0.1378
     34 H14        -7.0686   -1.1472    1.7448 H         1 <0>         0.1437
     35 H15        -7.5722   -5.1933    3.0039 H         1 <0>         0.1482
     36 H16        -4.7388   -6.1589    3.0463 H         1 <0>         0.4001
@<TRIPOS>BOND
     1    1    2 1
     2    1   22 1
     3    1   23 1
     4    1   24 1
     5    2    6 1
     6    2    3 2
     7    3    4 1
     8    3   25 1
     9    4    5 2
    10    4    8 1
    11    5    6 1
    12    5    7 1
    13    7   26 1
    14    7   27 1
    15    7   28 1
    16    8    9 1
    17    8   10 1
    18    8   11 1
    19   10   29 1
    20   10   30 1
    21   10   31 1
    22   11   12 am
    23   11   32 1
    24   12   13 2
    25   12   14 1
    26   14   19 ar
    27   14   15 ar
    28   15   16 ar
    29   15   33 1
    30   16   17 ar
    31   16   34 1
    32   17   18 ar
    33   17   21 1
    34   18   19 ar
    35   18   35 1
    36   19   20 1
    37   20   36 1
@<TRIPOS>MOLECULE
ZINC05026027
   40    43     0     0     0
SMALL
USER_CHARGES

@<TRIPOS>ATOM
      1 C1         -0.0187    1.5258    0.0104 C.3       1 <0>        -0.1392
      2 C2          0.0021   -0.0041    0.0020 C.3       1 <0>         0.1105
      3 C3          0.7041   -0.4955   -1.2685 C.3       1 <0>        -0.0773
      4 C4          0.9264   -1.9957   -1.1321 C.2       1 <0>        -0.0174
      5 C5          0.8497   -2.5826    0.0870 C.2       1 <0>        -0.2758
      6 S1          1.1676   -4.2965   -0.2167 S.3       1 <0>         0.2311
      7 C6          1.3942   -4.2459   -1.8591 C.2       1 <0>         0.0982
      8 C7          1.2239   -2.9033   -2.2211 C.2       1 <0>        -0.2521
      9 C8          1.3571   -2.5609   -3.6607 C.2       1 <0>         0.4669
     10 N1          1.8641   -3.4646   -4.4547 N.2       1 <0>        -0.6424
     11 C9          2.3667   -4.7608   -4.0169 C.3       1 <0>         0.3971
     12 H1          2.1991   -5.4927   -4.8070 H         1 <0>         0.1230
     13 N2          1.6936   -5.2173   -2.7874 N.pl3     1 <0>        -0.7039
     14 C10         3.8466   -4.6513   -3.7541 C.ar      1 <0>        -0.1062
     15 C11         4.4408   -5.4580   -2.8016 C.ar      1 <0>        -0.0964
     16 C12         5.7981   -5.3582   -2.5606 C.ar      1 <0>        -0.0924
     17 C13         6.5620   -4.4511   -3.2726 C.ar      1 <0>        -0.0851
     18 C14         5.9670   -3.6441   -4.2256 C.ar      1 <0>        -0.0932
     19 C15         4.6105   -3.7482   -4.4697 C.ar      1 <0>        -0.0834
     20 Br1         8.4189   -4.3137   -2.9429 Br        1 <0>        -0.0479
     21 O1          0.9669   -1.3542   -4.1324 O.3       1 <0>        -0.4529
     22 C16         0.5582   -1.8887    1.3797 C.3       1 <0>         0.1536
     23 O2          0.6942   -0.4750    1.1614 O.3       1 <0>        -0.3607
     24 C17        -1.4343   -0.5307    0.0201 C.3       1 <0>        -0.1809
     25 H2          1.0039    1.9031    0.0027 H         1 <0>         0.0655
     26 H3         -0.5459    1.8868   -0.8726 H         1 <0>         0.0735
     27 H4         -0.5289    1.8773    0.9072 H         1 <0>         0.0668
     28 H5          0.0777   -0.2932   -2.1373 H         1 <0>         0.0960
     29 H6          1.6631    0.0106   -1.3789 H         1 <0>         0.0868
     30 H7          1.4741   -6.1507   -2.6405 H         1 <0>         0.4176
     31 H8          3.8442   -6.1660   -2.2455 H         1 <0>         0.1277
     32 H9          6.2622   -5.9882   -1.8162 H         1 <0>         0.1339
     33 H10         6.5630   -2.9357   -4.7818 H         1 <0>         0.1343
     34 H11         4.1466   -3.1211   -5.2166 H         1 <0>         0.1391
     35 H12         1.1001   -1.2419   -5.0836 H         1 <0>         0.4077
     36 H13        -0.4584   -2.1168    1.6998 H         1 <0>         0.0730
     37 H14         1.2672   -2.2141    2.1411 H         1 <0>         0.1064
     38 H15        -1.9652   -0.1686   -0.8603 H         1 <0>         0.0686
     39 H16        -1.4218   -1.6206    0.0142 H         1 <0>         0.0640
     40 H17        -1.9393   -0.1781    0.9194 H         1 <0>         0.0660
@<TRIPOS>BOND
     1    1    2 1
     2    1   25 1
     3    1   26 1
     4    1   27 1
     5    2   23 1
     6    2    3 1
     7    2   24 1
     8    3    4 1
     9    3   28 1
    10    3   29 1
    11    4    8 1
    12    4    5 2
    13    5    6 1
    14    5   22 1
    15    6    7 1
    16    7   13 1
    17    7    8 2
    18    8    9 1
    19    9   10 2
    20    9   21 1
    21   10   11 1
    22   11   12 1
    23   11   13 1
    24   11   14 1
    25   13   30 1
    26   14   19 ar
    27   14   15 ar
    28   15   16 ar
    29   15   31 1
    30   16   17 ar
    31   16   32 1
    32   17   18 ar
    33   17   20 1
    34   18   19 ar
    35   18   33 1
    36   19   34 1
    37   21   35 1
    38   22   23 1
    39   22   36 1
    40   22   37 1
    41   24   38 1
    42   24   39 1
    43   24   40 1
@<TRIPOS>MOLECULE
ZINC11678690
   55    58     0     0     0
SMALL
USER_CHARGES
(8R,9S,10R,13S,14R,17S)-17-hydroxy-17-(2-hydroxyacetyl)-10,13-dimethyl-2,6,7,8,9,11,12,14,15,16-decahydro-1H-cyclopenta[a]phenanthren-3-one
@<TRIPOS>ATOM
      1 C1          0.0152    1.0887   -0.0307 C.3       1 <0>        -0.1496
      2 C2         -0.7000    1.5708    1.2330 C.3       1 <0>        -0.0284
      3 C3          0.0652    1.0465    2.4353 C.3       1 <0>        -0.1064
      4 C4         -0.2704   -0.4164    2.7232 C.3       1 <0>        -0.1598
      5 C5         -1.7671   -0.5025    2.9494 C.2       1 <0>         0.3886
      6 O1         -2.2354   -1.0761    3.9105 O.2       1 <0>        -0.4567
      7 C6         -2.6195    0.1443    1.9458 C.2       1 <0>        -0.2430
      8 C7         -2.1226    1.1075    1.1665 C.2       1 <0>        -0.0187
      9 C8         -3.0404    1.7328    0.1319 C.3       1 <0>        -0.0964
     10 C9         -2.9271    3.2550    0.2355 C.3       1 <0>        -0.1135
     11 C10        -1.4585    3.6656    0.0838 C.3       1 <0>        -0.0729
     12 H1         -1.0676    3.2358   -0.8385 H         1 <0>         0.0777
     13 C11        -0.6639    3.1043    1.2410 C.3       1 <0>        -0.0682
     14 H2         -1.0819    3.4764    2.1764 H         1 <0>         0.0775
     15 C12         0.8111    3.5445    1.0896 C.3       1 <0>        -0.1153
     16 C13         0.8770    5.0666    1.1688 C.3       1 <0>        -0.1255
     17 C14         0.0878    5.6990    0.0193 C.3       1 <0>        -0.0274
     18 C15        -1.3562    5.1703    0.0011 C.3       1 <0>        -0.0696
     19 H3         -1.8368    5.5117   -0.9158 H         1 <0>         0.0801
     20 C16        -2.0117    5.8726    1.2049 C.3       1 <0>        -0.1157
     21 C17        -1.4182    7.2996    1.1563 C.3       1 <0>        -0.1499
     22 C18        -0.0934    7.1983    0.3773 C.3       1 <0>         0.0956
     23 C19         1.0508    7.6668    1.2389 C.2       1 <0>         0.3335
     24 O2          0.9574    7.6244    2.4421 O.2       1 <0>        -0.4150
     25 C20         2.3116    8.1881    0.5989 C.3       1 <0>         0.0388
     26 O3          3.2406    8.5674    1.6164 O.3       1 <0>        -0.5574
     27 O4         -0.1636    7.9838   -0.8144 O.3       1 <0>        -0.5385
     28 C21         0.7814    5.5114   -1.3314 C.3       1 <0>        -0.1296
     29 H4          0.0352   -0.0010   -0.0436 H         1 <0>         0.0581
     30 H5          1.0360    1.4709   -0.0387 H         1 <0>         0.0707
     31 H6         -0.5159    1.4528   -0.9101 H         1 <0>         0.0634
     32 H7          1.1344    1.1349    2.2426 H         1 <0>         0.0841
     33 H8         -0.1894    1.6472    3.3085 H         1 <0>         0.0697
     34 H9          0.0020   -0.9805    1.9437 H         1 <0>         0.0908
     35 H10         0.2599   -0.7494    3.6154 H         1 <0>         0.0916
     36 H11        -3.6543   -0.1485    1.8469 H         1 <0>         0.1337
     37 H12        -2.7409    1.4107   -0.8654 H         1 <0>         0.0848
     38 H13        -4.0689    1.4260    0.3220 H         1 <0>         0.0783
     39 H14        -3.5178    3.7185   -0.5547 H         1 <0>         0.0713
     40 H15        -3.2978    3.5821    1.2069 H         1 <0>         0.0685
     41 H16         1.1889    3.2123    0.1227 H         1 <0>         0.0742
     42 H17         1.4152    3.1107    1.8865 H         1 <0>         0.0709
     43 H18         1.9177    5.3851    1.1084 H         1 <0>         0.0615
     44 H19         0.4549    5.3953    2.1185 H         1 <0>         0.0767
     45 H20        -3.0950    5.9033    1.0882 H         1 <0>         0.0732
     46 H21        -1.7409    5.3730    2.1350 H         1 <0>         0.0725
     47 H22        -2.1040    7.9720    0.6410 H         1 <0>         0.0809
     48 H23        -1.2309    7.6607    2.1676 H         1 <0>         0.0839
     49 H24         2.7158    7.4734    0.0281 H         1 <0>         0.0737
     50 H25         2.0744    9.0549   -0.0179 H         1 <0>         0.0814
     51 H26         4.0772    8.9130    1.2761 H         1 <0>         0.3866
     52 H27        -0.3021    8.9276   -0.6559 H         1 <0>         0.3792
     53 H28         0.2300    6.0515   -2.1011 H         1 <0>         0.0721
     54 H29         1.7988    5.8983   -1.2742 H         1 <0>         0.0534
     55 H30         0.8095    4.4508   -1.5813 H         1 <0>         0.0607
@<TRIPOS>BOND
     1    1    2 1
     2    1   29 1
     3    1   30 1
     4    1   31 1
     5    2    8 1
     6    2   13 1
     7    2    3 1
     8    3    4 1
     9    3   32 1
    10    3   33 1
    11    4    5 1
    12    4   34 1
    13    4   35 1
    14    5    6 2
    15    5    7 1
    16    7    8 2
    17    7   36 1
    18    8    9 1
    19    9   10 1
    20    9   37 1
    21    9   38 1
    22   10   11 1
    23   10   39 1
    24   10   40 1
    25   11   12 1
    26   11   18 1
    27   11   13 1
    28   13   14 1
    29   13   15 1
    30   15   16 1
    31   15   41 1
    32   15   42 1
    33   16   17 1
    34   16   43 1
    35   16   44 1
    36   17   22 1
    37   17   18 1
    38   17   28 1
    39   18   19 1
    40   18   20 1
    41   20   21 1
    42   20   45 1
    43   20   46 1
    44   21   22 1
    45   21   47 1
    46   21   48 1
    47   22   23 1
    48   22   27 1
    49   23   24 2
    50   23   25 1
    51   25   26 1
    52   25   49 1
    53   25   50 1
    54   26   51 1
    55   27   52 1
    56   28   53 1
    57   28   54 1
    58   28   55 1
@<TRIPOS>MOLECULE
ZINC37288761
   35    36     0     0     0
SMALL
USER_CHARGES

@<TRIPOS>ATOM
      1 C1         -0.0167    1.3828    0.0096 C.ar      1 <0>        -0.2147
      2 C2          1.1730    2.0907    0.0021 C.ar      1 <0>         0.1595
      3 C3          2.3819    1.4169   -0.0131 C.ar      1 <0>        -0.1766
      4 C4          2.4063    0.0331   -0.0212 C.ar      1 <0>        -0.0326
      5 C5          1.2195   -0.6811   -0.0137 C.ar      1 <0>         0.0243
      6 C6          0.0021   -0.0041    0.0020 C.ar      1 <0>         0.2449
      7 N1         -1.1994   -0.7218    0.0096 N.pl3     1 <0>        -0.8583
      8 O1          1.2427   -2.0416   -0.0221 O.3       1 <0>        -0.2881
      9 C7          1.2664   -2.6979    1.2470 C.3       1 <0>         0.0399
     10 C8          1.2899   -4.1905    1.0403 C.2       1 <0>         0.5196
     11 O2          1.2867   -4.6472   -0.0832 O.2       1 <0>        -0.5116
     12 N2          1.3145   -5.0178    2.1040 N.am      1 <0>        -0.6110
     13 C9          1.3127   -4.4796    3.4711 C.3       1 <0>         0.1025
     14 C10         0.1637   -5.1240    4.2531 C.3       1 <0>        -0.1365
     15 C11         0.2916   -6.6471    4.1774 C.3       1 <0>        -0.1219
     16 C12         0.1945   -7.0970    2.7179 C.3       1 <0>        -0.1358
     17 C13         1.3376   -6.4751    1.9185 C.3       1 <0>         0.1117
     18 Br1         4.0605   -0.8829   -0.0432 Br        1 <0>        -0.0174
     19 F1          1.1539    3.4416    0.0091 F         1 <0>        -0.1269
     20 H1         -0.9591    1.9103    0.0260 H         1 <0>         0.1468
     21 H2          3.3082    1.9722   -0.0189 H         1 <0>         0.1493
     22 H3         -2.0465   -0.2493    0.0203 H         1 <0>         0.4062
     23 H4         -1.1851   -1.6916    0.0043 H         1 <0>         0.4079
     24 H5          2.1567   -2.3932    1.7970 H         1 <0>         0.0871
     25 H6          0.3771   -2.4237    1.8145 H         1 <0>         0.0821
     26 H7          2.2606   -4.7119    3.9566 H         1 <0>         0.0760
     27 H8          1.1717   -3.3993    3.4384 H         1 <0>         0.0820
     28 H9          0.2095   -4.8064    5.2948 H         1 <0>         0.0789
     29 H10        -0.7883   -4.8168    3.8202 H         1 <0>         0.0677
     30 H11         1.2544   -6.9516    4.5880 H         1 <0>         0.0665
     31 H12        -0.5107   -7.1080    4.7536 H         1 <0>         0.0681
     32 H13         0.2622   -8.1837    2.6668 H         1 <0>         0.0786
     33 H14        -0.7578   -6.7713    2.2994 H         1 <0>         0.0668
     34 H15         1.2131   -6.7110    0.8616 H         1 <0>         0.0948
     35 H16         2.2876   -6.8737    2.2745 H         1 <0>         0.0701
@<TRIPOS>BOND
     1    1    6 ar
     2    1    2 ar
     3    1   20 1
     4    2    3 ar
     5    2   19 1
     6    3    4 ar
     7    3   21 1
     8    4    5 ar
     9    4   18 1
    10    5    6 ar
    11    5    8 1
    12    6    7 1
    13    7   22 1
    14    7   23 1
    15    8    9 1
    16    9   10 1
    17    9   24 1
    18    9   25 1
    19   10   11 2
    20   10   12 am
    21   12   17 1
    22   12   13 1
    23   13   14 1
    24   13   26 1
    25   13   27 1
    26   14   15 1
    27   14   28 1
    28   14   29 1
    29   15   16 1
    30   15   30 1
    31   15   31 1
    32   16   17 1
    33   16   32 1
    34   16   33 1
    35   17   34 1
    36   17   35 1
@<TRIPOS>MOLECULE
ZINC43317057
   32    33     0     0     0
SMALL
USER_CHARGES

@<TRIPOS>ATOM
      1 C1          0.0408    1.3261    0.5470 C.ar      1 <0>        -0.0504
      2 C2          1.2280    2.0307    0.4935 C.ar      1 <0>        -0.1257
      3 C3          2.3794    1.4137    0.0242 C.ar      1 <0>         0.2126
      4 C4          2.3344    0.0883   -0.3908 C.ar      1 <0>        -0.1289
      5 C5          1.1444   -0.6114   -0.3350 C.ar      1 <0>        -0.0376
      6 C6         -0.0016    0.0068    0.1334 C.ar      1 <0>        -0.1107
      7 Br1        -1.6287   -0.9538    0.2082 Br        1 <0>        -0.0365
      8 Br2         3.9001   -0.7566   -1.0316 Br        1 <0>        -0.0338
      9 N1          3.5838    2.1257   -0.0315 N.am      1 <0>        -0.6793
     10 C7          3.5682    3.4707   -0.1160 C.2       1 <0>         0.7118
     11 O1          2.5100    4.0691   -0.0936 O.2       1 <0>        -0.5635
     12 N2          4.7257    4.1525   -0.2254 N.am      1 <0>        -0.6166
     13 C8          6.0041    3.4406   -0.3586 C.3       1 <0>         0.1026
     14 C9          6.7330    3.9644   -1.6000 C.3       1 <0>        -0.1326
     15 C10         6.8679    5.4858   -1.5035 C.3       1 <0>        -0.1153
     16 C11         5.4763    6.1210   -1.4566 C.3       1 <0>         0.0917
     17 H1          4.9186    5.8418   -2.3506 H         1 <0>         0.0609
     18 C12         4.7325    5.6217   -0.2197 C.3       1 <0>         0.0961
     19 O2          5.6029    7.5432   -1.3982 O.3       1 <0>        -0.5599
     20 H2         -0.8542    1.8046    0.9164 H         1 <0>         0.1445
     21 H3          1.2600    3.0608    0.8163 H         1 <0>         0.1747
     22 H4          1.1084   -1.6415   -0.6577 H         1 <0>         0.1474
     23 H5          4.4294    1.6509   -0.0092 H         1 <0>         0.4115
     24 H6          6.6153    3.6184    0.5262 H         1 <0>         0.0812
     25 H7          5.8177    2.3722   -0.4679 H         1 <0>         0.0785
     26 H8          7.7241    3.5142   -1.6570 H         1 <0>         0.0893
     27 H9          6.1635    3.7055   -2.4926 H         1 <0>         0.0725
     28 H10         7.4161    5.7450   -0.5978 H         1 <0>         0.0752
     29 H11         7.4080    5.8584   -2.3739 H         1 <0>         0.0778
     30 H12         3.7074    5.9919   -0.2374 H         1 <0>         0.0996
     31 H13         5.2377    5.9813    0.6767 H         1 <0>         0.0794
     32 H14         4.7579    8.0123   -1.3662 H         1 <0>         0.3834
@<TRIPOS>BOND
     1    1    6 ar
     2    1    2 ar
     3    1   20 1
     4    2    3 ar
     5    2   21 1
     6    3    4 ar
     7    3    9 1
     8    4    5 ar
     9    4    8 1
    10    5    6 ar
    11    5   22 1
    12    6    7 1
    13    9   10 am
    14    9   23 1
    15   10   11 2
    16   10   12 am
    17   12   18 1
    18   12   13 1
    19   13   14 1
    20   13   24 1
    21   13   25 1
    22   14   15 1
    23   14   26 1
    24   14   27 1
    25   15   16 1
    26   15   28 1
    27   15   29 1
    28   16   17 1
    29   16   18 1
    30   16   19 1
    31   18   30 1
    32   18   31 1
    33   19   32 1
@<TRIPOS>MOLECULE
ZINC07217356
   49    53     0     0     0
SMALL
USER_CHARGES

@<TRIPOS>ATOM
      1 C1         -0.0167    1.3768    0.0096 C.ar      1 <0>        -0.1559
      2 C2          1.1716    2.0842    0.0021 C.ar      1 <0>        -0.0803
      3 C3          2.3750    1.4095   -0.0110 C.ar      1 <0>        -0.1534
      4 C4          2.3976    0.0182   -0.0179 C.ar      1 <0>         0.1382
      5 C5          1.2071   -0.6868   -0.0139 C.ar      1 <0>        -0.1794
      6 C6          0.0021   -0.0041    0.0020 C.ar      1 <0>        -0.0692
      7 C7          1.1867   -2.1943   -0.0325 C.3       1 <0>         0.1911
      8 H1          0.9541   -2.5414   -1.0392 H         1 <0>         0.1017
      9 C8          2.5558   -2.7338    0.3887 C.3       1 <0>        -0.1671
     10 C9          3.6338   -1.9865   -0.4067 C.3       1 <0>         0.0659
     11 O1          3.6019   -0.6103   -0.0255 O.3       1 <0>        -0.3152
     12 N1          0.1650   -2.6795    0.8986 N.am      1 <0>        -0.7193
     13 C10        -1.1171   -2.7855    0.4969 C.2       1 <0>         0.5264
     14 O2         -1.4251   -2.4792   -0.6355 O.2       1 <0>        -0.5266
     15 C11        -2.1680   -3.2846    1.4547 C.3       1 <0>        -0.0662
     16 C12        -1.8073   -4.6980    1.9164 C.3       1 <0>        -0.1031
     17 C13        -2.8743   -5.2048    2.8888 C.3       1 <0>        -0.0812
     18 H2         -2.6173   -6.2117    3.2178 H         1 <0>         0.0800
     19 C14        -2.9426   -4.2741    4.1013 C.3       1 <0>        -0.1127
     20 C15        -3.3033   -2.8607    3.6396 C.3       1 <0>        -0.0811
     21 H3         -3.3520   -2.1976    4.5034 H         1 <0>         0.0801
     22 C16        -2.2364   -2.3539    2.6672 C.3       1 <0>        -0.1033
     23 C17        -4.6627   -2.8848    2.9379 C.3       1 <0>        -0.1400
     24 C18        -4.5944   -3.8155    1.7255 C.3       1 <0>         0.1368
     25 C19        -4.2337   -5.2289    2.1872 C.3       1 <0>        -0.1399
     26 C20        -3.5274   -3.3087    0.7530 C.3       1 <0>        -0.0773
     27 O3         -5.8641   -3.8380    1.0701 O.3       1 <0>        -0.5577
     28 H4         -0.9590    1.9041    0.0259 H         1 <0>         0.1233
     29 H5          1.1576    3.1641    0.0061 H         1 <0>         0.1293
     30 H6          3.3024    1.9629   -0.0163 H         1 <0>         0.1311
     31 H7         -0.9273   -0.5542    0.0085 H         1 <0>         0.1305
     32 H8          2.7042   -2.5665    1.4555 H         1 <0>         0.0848
     33 H9          2.6128   -3.8005    0.1721 H         1 <0>         0.0934
     34 H10         4.6139   -2.4071   -0.1816 H         1 <0>         0.1150
     35 H11         3.4314   -2.0766   -1.4739 H         1 <0>         0.0691
     36 H12         0.4113   -2.9245    1.8043 H         1 <0>         0.4018
     37 H13        -1.7586   -5.3611    1.0526 H         1 <0>         0.0716
     38 H14        -0.8388   -4.6808    2.4163 H         1 <0>         0.0702
     39 H15        -3.7027   -4.6351    4.7941 H         1 <0>         0.0676
     40 H16        -1.9742   -4.2569    4.6012 H         1 <0>         0.0677
     41 H17        -1.2679   -2.3368    3.1671 H         1 <0>         0.0702
     42 H18        -2.4934   -1.3470    2.3382 H         1 <0>         0.0714
     43 H19        -5.4229   -3.2458    3.6307 H         1 <0>         0.0679
     44 H20        -4.9197   -1.8779    2.6090 H         1 <0>         0.0725
     45 H21        -4.1850   -5.8919    1.3234 H         1 <0>         0.0724
     46 H22        -4.9938   -5.5899    2.8799 H         1 <0>         0.0679
     47 H23        -3.7844   -2.3018    0.4241 H         1 <0>         0.0770
     48 H24        -3.4788   -3.9718   -0.1107 H         1 <0>         0.0773
     49 H25        -6.5895   -4.1496    1.6285 H         1 <0>         0.3768
@<TRIPOS>BOND
     1    1    6 ar
     2    1    2 ar
     3    1   28 1
     4    2    3 ar
     5    2   29 1
     6    3    4 ar
     7    3   30 1
     8    4   11 1
     9    4    5 ar
    10    5    6 ar
    11    5    7 1
    12    6   31 1
    13    7    8 1
    14    7    9 1
    15    7   12 1
    16    9   10 1
    17    9   32 1
    18    9   33 1
    19   10   11 1
    20   10   34 1
    21   10   35 1
    22   12   13 am
    23   12   36 1
    24   13   14 2
    25   13   15 1
    26   15   22 1
    27   15   26 1
    28   15   16 1
    29   16   17 1
    30   16   37 1
    31   16   38 1
    32   17   18 1
    33   17   25 1
    34   17   19 1
    35   19   20 1
    36   19   39 1
    37   19   40 1
    38   20   21 1
    39   20   22 1
    40   20   23 1
    41   22   41 1
    42   22   42 1
    43   23   24 1
    44   23   43 1
    45   23   44 1
    46   24   25 1
    47   24   26 1
    48   24   27 1
    49   25   45 1
    50   25   46 1
    51   26   47 1
    52   26   48 1
    53   27   49 1
@<TRIPOS>MOLECULE
ZINC06044247
   51    54     0     0     0
SMALL
USER_CHARGES

@<TRIPOS>ATOM
      1 C1         -0.4646    1.4584    0.1344 C.3       1 <0>        -0.1133
      2 C2         -0.2114   -0.0254    0.0615 C.ar      1 <0>        -0.0867
      3 C3         -0.2398   -0.6723   -1.1601 C.ar      1 <0>        -0.1293
      4 C4         -0.0076   -2.0332   -1.2270 C.ar      1 <0>        -0.1019
      5 C5          0.2535   -2.7475   -0.0723 C.ar      1 <0>        -0.0739
      6 C6          0.2828   -2.1006    1.1487 C.ar      1 <0>        -0.0630
      7 C7          0.0547   -0.7386    1.2151 C.ar      1 <0>        -0.1230
      8 C8          0.5669   -2.8793    2.4073 C.3       1 <0>        -0.1198
      9 C9          0.5057   -4.2314   -0.1452 C.3       1 <0>         0.0958
     10 H1          0.5771   -4.6316    0.8662 H         1 <0>         0.0964
     11 C10         1.8002   -4.4755   -0.8631 C.2       1 <0>        -0.2366
     12 C11         1.8184   -4.8875   -2.1572 C.2       1 <0>         0.4769
     13 N1          0.6369   -5.0972   -2.8315 N.pl3     1 <0>        -0.4893
     14 C12        -0.5320   -5.2894   -2.1432 C.2       1 <0>         0.2192
     15 C13        -0.6456   -4.8940   -0.8586 C.2       1 <0>        -0.2492
     16 C14        -1.8424   -5.0857   -0.1464 C.2       1 <0>         0.4019
     17 O1         -1.9088   -4.7320    1.0142 O.2       1 <0>        -0.4573
     18 C15        -3.0424   -5.7202   -0.7945 C.3       1 <0>        -0.1685
     19 C16        -3.0047   -5.4350   -2.2996 C.3       1 <0>        -0.1109
     20 C17        -1.6822   -5.9569   -2.8562 C.3       1 <0>        -0.0964
     21 C18         0.6295   -5.1137   -4.2321 C.ar      1 <0>         0.0624
     22 C19         0.8228   -6.3069   -4.9149 C.ar      1 <0>        -0.0827
     23 C20         0.8151   -6.3201   -6.2961 C.ar      1 <0>        -0.1193
     24 C21         0.6150   -5.1468   -7.0002 C.ar      1 <0>        -0.0693
     25 C22         0.4223   -3.9557   -6.3249 C.ar      1 <0>        -0.1457
     26 C23         0.4227   -3.9358   -4.9419 C.ar      1 <0>         0.1202
     27 F1          0.2285   -2.7731   -4.2818 F         1 <0>        -0.1200
     28 N2          3.0183   -5.0950   -2.7945 N.pl3     1 <0>        -0.8518
     29 C24         3.0377   -4.2702   -0.1723 C.1       1 <0>         0.2738
     30 N3          4.0194   -4.1074    0.3756 N.1       1 <0>        -0.4487
     31 H2          0.4791    1.9936    0.0299 H         1 <0>         0.0676
     32 H3         -1.1396    1.7517   -0.6696 H         1 <0>         0.0640
     33 H4         -0.9165    1.7030    1.0956 H         1 <0>         0.0646
     34 H5         -0.4437   -0.1144   -2.0620 H         1 <0>         0.1151
     35 H6         -0.0304   -2.5386   -2.1811 H         1 <0>         0.1192
     36 H7          0.0813   -0.2325    2.1688 H         1 <0>         0.1183
     37 H8          1.6446   -2.9746    2.5401 H         1 <0>         0.0637
     38 H9          0.1403   -2.3555    3.2627 H         1 <0>         0.0637
     39 H10         0.1213   -3.8710    2.3294 H         1 <0>         0.0795
     40 H11        -3.0212   -6.7970   -0.6266 H         1 <0>         0.1018
     41 H12        -3.9528   -5.3006   -0.3664 H         1 <0>         0.0986
     42 H13        -3.8349   -5.9437   -2.7898 H         1 <0>         0.0881
     43 H14        -3.0768   -4.3610   -2.4709 H         1 <0>         0.0760
     44 H15        -1.6264   -5.7350   -3.9219 H         1 <0>         0.0885
     45 H16        -1.6250   -7.0351   -2.7070 H         1 <0>         0.1025
     46 H17         0.9796   -7.2240   -4.3666 H         1 <0>         0.1428
     47 H18         0.9659   -7.2484   -6.8272 H         1 <0>         0.1423
     48 H19         0.6095   -5.1608   -8.0801 H         1 <0>         0.1433
     49 H20         0.2671   -3.0410   -6.8777 H         1 <0>         0.1472
     50 H21         3.8514   -4.9472   -2.3200 H         1 <0>         0.4200
     51 H22         3.0321   -5.3892   -3.7187 H         1 <0>         0.4031
@<TRIPOS>BOND
     1    1    2 1
     2    1   31 1
     3    1   32 1
     4    1   33 1
     5    2    7 ar
     6    2    3 ar
     7    3    4 ar
     8    3   34 1
     9    4    5 ar
    10    4   35 1
    11    5    6 ar
    12    5    9 1
    13    6    7 ar
    14    6    8 1
    15    7   36 1
    16    8   37 1
    17    8   38 1
    18    8   39 1
    19    9   10 1
    20    9   15 1
    21    9   11 1
    22   11   12 2
    23   11   29 1
    24   12   13 1
    25   12   28 1
    26   13   14 1
    27   13   21 1
    28   14   20 1
    29   14   15 2
    30   15   16 1
    31   16   17 2
    32   16   18 1
    33   18   19 1
    34   18   40 1
    35   18   41 1
    36   19   20 1
    37   19   42 1
    38   19   43 1
    39   20   44 1
    40   20   45 1
    41   21   26 ar
    42   21   22 ar
    43   22   23 ar
    44   22   46 1
    45   23   24 ar
    46   23   47 1
    47   24   25 ar
    48   24   48 1
    49   25   26 ar
    50   25   49 1
    51   26   27 1
    52   28   50 1
    53   28   51 1
    54   29   30 3
@<TRIPOS>MOLECULE
ZINC05853183
   37    39     0     0     0
SMALL
USER_CHARGES
(4S)-6-chloro-5-methoxy-4-[2-(3-pyridyl)ethynyl]-4-(trifluoromethyl)-1,3-dihydroquinazolin-2-one
@<TRIPOS>ATOM
      1 C1          0.3892    3.9426   -0.9831 C.3       1 <0>         0.0186
      2 O1          1.1766    3.3176    0.0324 O.3       1 <0>        -0.3068
      3 C2          1.3064    1.9661   -0.0317 C.ar      1 <0>         0.1783
      4 C3          0.2977    1.1424    0.4572 C.ar      1 <0>        -0.0891
      5 C4          0.4349   -0.2315    0.3889 C.ar      1 <0>        -0.0362
      6 C5          1.5699   -0.7945   -0.1636 C.ar      1 <0>        -0.1507
      7 C6          2.5807    0.0217   -0.6535 C.ar      1 <0>         0.2146
      8 C7          2.4394    1.4029   -0.5827 C.ar      1 <0>        -0.1687
      9 C8          3.5587    2.2610   -1.1254 C.3       1 <0>         0.3209
     10 N1          4.7224    1.5581   -1.6920 N.am      1 <0>        -0.7059
     11 C9          4.7354    0.2129   -1.7004 C.2       1 <0>         0.7189
     12 O2          5.7024   -0.3543   -2.1712 O.2       1 <0>        -0.5488
     13 N2          3.7331   -0.5307   -1.2150 N.am      1 <0>        -0.6547
     14 C10         2.9979    3.1291   -2.1736 C.1       1 <0>        -0.1941
     15 C11         2.5507    3.8214   -3.0097 C.1       1 <0>        -0.0421
     16 C12         2.0052    4.6658   -4.0294 C.ar      1 <0>        -0.0560
     17 C13         0.6481    4.5923   -4.3635 C.ar      1 <0>        -0.0424
     18 C14         0.1697    5.4333   -5.3528 C.ar      1 <0>        -0.1683
     19 C15         1.0417    6.3041   -5.9812 C.ar      1 <0>         0.1172
     20 N3          2.3174    6.3480   -5.6489 N.ar      1 <0>        -0.4777
     21 C16         2.8188    5.5715   -4.7106 C.ar      1 <0>         0.1307
     22 C17         4.0570    3.1591    0.0087 C.3       1 <0>         0.4456
     23 F1          4.3605    2.3741    1.1262 F         1 <0>        -0.1680
     24 F2          5.2051    3.8418   -0.4074 F         1 <0>        -0.1745
     25 F3          3.0611    4.0826    0.3440 F         1 <0>        -0.1395
     26 Cl1        -1.1353    1.8392    1.1460 Cl        1 <0>        -0.0375
     27 H1          0.7224    3.6010   -1.9630 H         1 <0>         0.0564
     28 H2         -0.6593    3.6791   -0.8436 H         1 <0>         0.0585
     29 H3          0.5037    5.0246   -0.9172 H         1 <0>         0.1020
     30 H4         -0.3497   -0.8689    0.7692 H         1 <0>         0.1545
     31 H5          1.6706   -1.8686   -0.2138 H         1 <0>         0.1540
     32 H6          5.4698    2.0588   -2.0548 H         1 <0>         0.4412
     33 H7          3.8118   -1.4967   -1.2544 H         1 <0>         0.4347
     34 H8         -0.0096    3.8995   -3.8596 H         1 <0>         0.1420
     35 H9         -0.8727    5.4071   -5.6342 H         1 <0>         0.1465
     36 H10         0.6719    6.9584   -6.7568 H         1 <0>         0.1652
     37 H11         3.8688    5.6367   -4.4662 H         1 <0>         0.1612
@<TRIPOS>BOND
     1    1    2 1
     2    1   27 1
     3    1   28 1
     4    1   29 1
     5    2    3 1
     6    3    8 ar
     7    3    4 ar
     8    4    5 ar
     9    4   26 1
    10    5    6 ar
    11    5   30 1
    12    6    7 ar
    13    6   31 1
    14    7   13 1
    15    7    8 ar
    16    8    9 1
    17    9   10 1
    18    9   14 1
    19    9   22 1
    20   10   11 am
    21   10   32 1
    22   11   12 2
    23   11   13 am
    24   13   33 1
    25   14   15 3
    26   15   16 1
    27   16   21 ar
    28   16   17 ar
    29   17   18 ar
    30   17   34 1
    31   18   19 ar
    32   18   35 1
    33   19   20 ar
    34   19   36 1
    35   20   21 ar
    36   21   37 1
    37   22   23 1
    38   22   24 1
    39   22   25 1
@<TRIPOS>MOLECULE
ZINC32605116
   43    46     0     0     0
SMALL
USER_CHARGES

@<TRIPOS>ATOM
      1 C1         -2.8573    0.7105    0.3043 C.3       1 <0>        -0.1161
      2 C2         -2.1202   -0.6013    0.2213 C.ar      1 <0>        -0.0868
      3 C3         -2.0786   -1.2915   -0.9878 C.ar      1 <0>        -0.0945
      4 C4         -1.4215   -2.4786   -1.0961 C.ar      1 <0>        -0.0928
      5 C5         -0.7721   -3.0215    0.0263 C.ar      1 <0>         0.1491
      6 C6         -0.8160   -2.3171    1.2534 C.ar      1 <0>        -0.1204
      7 C7         -1.4981   -1.0945    1.3285 C.ar      1 <0>        -0.0980
      8 C8         -0.1616   -2.8658    2.3813 C.ar      1 <0>         0.2069
      9 C9          0.4946   -4.0758    2.2249 C.ar      1 <0>        -0.1986
     10 C10         0.4917   -4.7051    0.9871 C.ar      1 <0>         0.1761
     11 N1         -0.1188   -4.1859   -0.0524 N.ar      1 <0>        -0.4940
     12 C11         1.2100   -6.0209    0.8328 C.3       1 <0>        -0.1044
     13 N2         -0.1763   -2.2113    3.6074 N.am      1 <0>        -0.6514
     14 C12        -0.0349   -2.9146    4.7484 C.2       1 <0>         0.5906
     15 O1          0.1860   -4.1099    4.7027 O.2       1 <0>        -0.5288
     16 C13        -0.1479   -2.2368    6.0489 C.2       1 <0>        -0.3527
     17 C14        -0.1334   -2.9631    7.2221 C.2       1 <0>         0.2638
     18 N3         -0.2339   -2.3801    8.4237 N.pl3     1 <0>        -0.5864
     19 C15        -0.3587   -1.0169    8.5844 C.ar      1 <0>         0.1799
     20 C16        -0.4593   -0.4611    9.8575 C.ar      1 <0>        -0.1478
     21 C17        -0.5832    0.9025   10.0056 C.ar      1 <0>        -0.0459
     22 C18        -0.6099    1.7371    8.8957 C.ar      1 <0>        -0.0657
     23 C19        -0.5122    1.2085    7.6266 C.ar      1 <0>        -0.0202
     24 C20        -0.3853   -0.1710    7.4628 C.ar      1 <0>        -0.1718
     25 C21        -0.2721   -0.7723    6.1210 C.2       1 <0>         0.4396
     26 O2         -0.2853   -0.0858    5.1142 O.2       1 <0>        -0.4828
     27 Cl1        -0.7674    3.4529    9.1078 Cl        1 <0>        -0.0500
     28 H1         -2.1755    1.5262    0.0639 H         1 <0>         0.0732
     29 H2         -3.6850    0.7077   -0.4049 H         1 <0>         0.0691
     30 H3         -3.2446    0.8464    1.3141 H         1 <0>         0.0669
     31 H4         -2.5760   -0.8785   -1.8529 H         1 <0>         0.1306
     32 H5         -1.3993   -3.0016   -2.0408 H         1 <0>         0.1377
     33 H6         -1.5334   -0.5487    2.2597 H         1 <0>         0.1250
     34 H7          1.0065   -4.5274    3.0619 H         1 <0>         0.1651
     35 H8          0.5225   -6.8379    1.0517 H         1 <0>         0.0812
     36 H9          1.5754   -6.1176   -0.1896 H         1 <0>         0.0788
     37 H10         2.0514   -6.0588    1.5245 H         1 <0>         0.0766
     38 H11        -0.2882   -1.2484    3.6419 H         1 <0>         0.4255
     39 H12        -0.0381   -4.0376    7.1696 H         1 <0>         0.1887
     40 H13        -0.4405   -1.0994   10.7285 H         1 <0>         0.1495
     41 H14        -0.6608    1.3275   10.9954 H         1 <0>         0.1493
     42 H15        -0.5342    1.8583    6.7643 H         1 <0>         0.1553
     43 H16        -0.2186   -2.9413    9.2148 H         1 <0>         0.4303
@<TRIPOS>BOND
     1    1    2 1
     2    1   28 1
     3    1   29 1
     4    1   30 1
     5    2    7 ar
     6    2    3 ar
     7    3    4 ar
     8    3   31 1
     9    4    5 ar
    10    4   32 1
    11    5   11 ar
    12    5    6 ar
    13    6    7 ar
    14    6    8 ar
    15    7   33 1
    16    8    9 ar
    17    8   13 1
    18    9   10 ar
    19    9   34 1
    20   10   11 ar
    21   10   12 1
    22   12   35 1
    23   12   36 1
    24   12   37 1
    25   13   14 am
    26   13   38 1
    27   14   15 2
    28   14   16 1
    29   16   25 1
    30   16   17 2
    31   17   18 1
    32   17   39 1
    33   18   19 1
    34   18   43 1
    35   19   24 ar
    36   19   20 ar
    37   20   21 ar
    38   20   40 1
    39   21   22 ar
    40   21   41 1
    41   22   23 ar
    42   22   27 1
    43   23   24 ar
    44   23   42 1
    45   24   25 1
    46   25   26 2
@<TRIPOS>MOLECULE
ZINC41549959
   35    37     0     0     0
SMALL
USER_CHARGES

@<TRIPOS>ATOM
      1 C1          0.0227    1.3535   -0.2062 C.3       1 <0>        -0.1710
      2 C2          0.0466   -0.1620    0.0025 C.3       1 <0>         0.0925
      3 C3          0.7983   -0.8129   -1.1310 C.2       1 <0>         0.5020
      4 O1          0.2009   -1.2114   -2.1085 O.2       1 <0>        -0.4518
      5 N1          2.1387   -0.9498   -1.0538 N.am      1 <0>        -0.6563
      6 C4          2.7946   -0.5991    0.1342 C.ar      1 <0>         0.1139
      7 C5          4.1768   -0.5095    0.1753 C.ar      1 <0>        -0.1175
      8 C6          4.8086   -0.1492    1.3524 C.ar      1 <0>        -0.0218
      9 C7          4.0636    0.1223    2.4865 C.ar      1 <0>        -0.1008
     10 C8          2.6842    0.0300    2.4519 C.ar      1 <0>        -0.0860
     11 C9          2.0460   -0.3365    1.2793 C.ar      1 <0>         0.0780
     12 O2          0.6919   -0.4614    1.2422 O.3       1 <0>        -0.2928
     13 Cl1         6.5402   -0.0380    1.4068 Cl        1 <0>        -0.0513
     14 C10        -1.3659   -0.6864    0.0329 C.2       1 <0>         0.5384
     15 O3         -1.8720   -1.1246   -0.9786 O.2       1 <0>        -0.4577
     16 N2         -2.0668   -0.6686    1.1839 N.am      1 <0>        -0.6560
     17 C11        -3.4135   -1.0521    1.1897 C.ar      1 <0>         0.1654
     18 C12        -3.9504   -1.6875    2.3016 C.ar      1 <0>        -0.1217
     19 C13        -5.2790   -2.0656    2.3065 C.ar      1 <0>        -0.1019
     20 C14        -6.0764   -1.8118    1.2038 C.ar      1 <0>         0.0548
     21 C15        -5.5431   -1.1774    0.0919 C.ar      1 <0>         0.0932
     22 C16        -4.2146   -0.7924    0.0862 C.ar      1 <0>        -0.1336
     23 F1         -6.3227   -0.9304   -0.9835 F         1 <0>        -0.1217
     24 F2         -7.3754   -2.1828    1.2106 F         1 <0>        -0.1259
     25 H1          1.0441    1.7335   -0.2268 H         1 <0>         0.0853
     26 H2         -0.4693    1.5824   -1.1515 H         1 <0>         0.0938
     27 H3         -0.5237    1.8242    0.6111 H         1 <0>         0.0950
     28 H4          2.6421   -1.2871   -1.8112 H         1 <0>         0.4235
     29 H5          4.7596   -0.7209   -0.7091 H         1 <0>         0.1472
     30 H6          4.5611    0.4077    3.4016 H         1 <0>         0.1491
     31 H7          2.1056    0.2429    3.3386 H         1 <0>         0.1532
     32 H8         -1.6383   -0.3900    2.0084 H         1 <0>         0.4233
     33 H9         -3.3292   -1.8864    3.1624 H         1 <0>         0.1476
     34 H10        -5.6959   -2.5600    3.1713 H         1 <0>         0.1542
     35 H11        -3.7998   -0.2944   -0.7777 H         1 <0>         0.1575
@<TRIPOS>BOND
     1    1    2 1
     2    1   25 1
     3    1   26 1
     4    1   27 1
     5    2   12 1
     6    2    3 1
     7    2   14 1
     8    3    4 2
     9    3    5 am
    10    5    6 1
    11    5   28 1
    12    6   11 ar
    13    6    7 ar
    14    7    8 ar
    15    7   29 1
    16    8    9 ar
    17    8   13 1
    18    9   10 ar
    19    9   30 1
    20   10   11 ar
    21   10   31 1
    22   11   12 1
    23   14   15 2
    24   14   16 am
    25   16   17 1
    26   16   32 1
    27   17   22 ar
    28   17   18 ar
    29   18   19 ar
    30   18   33 1
    31   19   20 ar
    32   19   34 1
    33   20   21 ar
    34   20   24 1
    35   21   22 ar
    36   21   23 1
    37   22   35 1
@<TRIPOS>MOLECULE
ZINC55305281
   31    33     0     0     0
SMALL
USER_CHARGES

@<TRIPOS>ATOM
      1 C1         -0.0167    1.3820    0.0096 C.ar      1 <0>        -0.0837
      2 C2          1.1718    2.0860    0.0021 C.ar      1 <0>        -0.0614
      3 C3          2.3819    1.4129   -0.0131 C.ar      1 <0>        -0.0548
      4 C4          2.4102    0.0309   -0.0208 C.ar      1 <0>        -0.0768
      5 C5          1.2223   -0.6834   -0.0133 C.ar      1 <0>         0.1034
      6 C6          0.0021   -0.0041    0.0020 C.ar      1 <0>         0.1062
      7 N1         -0.9983   -0.9738    0.0064 N.am      1 <0>        -0.6388
      8 H1         -1.9533   -0.8041    0.0164 H         1 <0>         0.4394
      9 C7         -0.4135   -2.1864   -0.0057 C.2       1 <0>         0.6870
     10 O1         -1.0053   -3.2497   -0.0054 O.2       1 <0>        -0.5455
     11 N2          0.9252   -2.0442   -0.0178 N.am      1 <0>        -0.6385
     12 H2          1.5727   -2.7665   -0.0283 H         1 <0>         0.4394
     13 Br1         4.0019    2.3881   -0.0240 Br        1 <0>        -0.0114
     14 C8          1.1514    3.5929    0.0099 C.3       1 <0>         0.0423
     15 H3          1.9826    3.9706   -0.5855 H         1 <0>         0.1301
     16 C9          1.2836    4.0973    1.4483 C.3       1 <0>         0.0549
     17 H4          0.4527    3.7201    2.0444 H         1 <0>         0.0823
     18 C10         1.2663    5.6286    1.4573 C.3       1 <0>         0.0303
     19 O2          1.5021    6.0928    2.7899 O.3       1 <0>        -0.3726
     20 C11         2.7381    5.6341    3.3458 C.3       1 <0>         0.0211
     21 C12         2.7554    4.1028    3.3367 C.3       1 <0>         0.0245
     22 O3          2.5189    3.6373    2.0046 O.3       1 <0>        -0.3507
     23 Cl1        -0.4039    4.1765   -0.6911 Cl        1 <0>        -0.1399
     24 H5         -0.9585    1.9103    0.0260 H         1 <0>         0.1485
     25 H6          3.3556   -0.4910   -0.0330 H         1 <0>         0.1467
     26 H7          2.0470    6.0056    0.7966 H         1 <0>         0.0662
     27 H8          0.2946    5.9839    1.1143 H         1 <0>         0.1115
     28 H9          3.5683    6.0113    2.7486 H         1 <0>         0.0633
     29 H10         2.8323    5.9935    4.3705 H         1 <0>         0.1061
     30 H11         3.7271    3.7475    3.6797 H         1 <0>         0.1093
     31 H12         1.9747    3.7258    3.9974 H         1 <0>         0.0616
@<TRIPOS>BOND
     1    1    6 ar
     2    1    2 ar
     3    1   24 1
     4    2    3 ar
     5    2   14 1
     6    3    4 ar
     7    3   13 1
     8    4    5 ar
     9    4   25 1
    10    5   11 1
    11    5    6 ar
    12    6    7 1
    13    7    8 1
    14    7    9 am
    15    9   10 2
    16    9   11 am
    17   11   12 1
    18   14   15 1
    19   14   16 1
    20   14   23 1
    21   16   17 1
    22   16   22 1
    23   16   18 1
    24   18   19 1
    25   18   26 1
    26   18   27 1
    27   19   20 1
    28   20   21 1
    29   20   28 1
    30   20   29 1
    31   21   22 1
    32   21   30 1
    33   21   31 1
@<TRIPOS>MOLECULE
ZINC00140048
   35    38     0     0     0
SMALL
USER_CHARGES

@<TRIPOS>ATOM
      1 C1         -0.0167    1.3775    0.0096 C.ar      1 <0>        -0.0829
      2 C2          1.1709    2.0856    0.0021 C.ar      1 <0>        -0.1131
      3 C3          2.3781    1.4125   -0.0130 C.ar      1 <0>        -0.0488
      4 C4          2.3993    0.0305   -0.0211 C.ar      1 <0>        -0.1337
      5 C5          1.2109   -0.6795   -0.0135 C.ar      1 <0>         0.0999
      6 C6          0.0021   -0.0041    0.0020 C.ar      1 <0>        -0.1516
      7 F1          1.2304   -2.0304   -0.0218 F         1 <0>        -0.1402
      8 C7          3.6716    2.1857   -0.0212 C.3       1 <0>         0.1185
      9 H1          3.4608    3.2551   -0.0135 H         1 <0>         0.1042
     10 C8          4.4668    1.8332   -1.2515 C.2       1 <0>        -0.2511
     11 C9          4.2363    2.1862   -2.5862 C.2       1 <0>         0.2030
     12 N1          5.1950    1.6487   -3.3192 N.2       1 <0>        -0.2390
     13 N2          6.0578    0.9414   -2.4676 N.pl3     1 <0>        -0.4404
     14 H2          6.8480    0.4482   -2.7384 H         1 <0>         0.4512
     15 C10         5.5952    1.0673   -1.2062 C.2       1 <0>         0.2818
     16 O1          6.0925    0.5642   -0.0487 O.3       1 <0>        -0.2277
     17 C11         5.6059    1.0588    1.1076 C.2       1 <0>         0.4406
     18 C12         4.4910    1.8197    1.1912 C.2       1 <0>        -0.2573
     19 C13         4.0726    2.2946    2.4757 C.1       1 <0>         0.2698
     20 N3          3.7407    2.6714    3.4948 N.1       1 <0>        -0.4325
     21 N4          6.2820    0.7740    2.2679 N.pl3     1 <0>        -0.8285
     22 C14         3.1179    3.0147   -3.0871 C.2       1 <0>        -0.1112
     23 C15         3.1048    3.9118   -4.1207 C.2       1 <0>        -0.1137
     24 C16         1.9310    4.5750   -4.4075 C.2       1 <0>        -0.1635
     25 C17         0.8276    4.3198   -3.6594 C.2       1 <0>        -0.1828
     26 S1          1.4320    3.0988   -2.5058 S.3       1 <0>         0.1152
     27 H3         -0.9592    1.9045    0.0259 H         1 <0>         0.1352
     28 H4          1.1553    3.1655    0.0076 H         1 <0>         0.1367
     29 H5          3.3426   -0.4952   -0.0336 H         1 <0>         0.1258
     30 H6         -0.9257   -0.5570    0.0082 H         1 <0>         0.1354
     31 H7          7.0854    0.2311    2.2403 H         1 <0>         0.4126
     32 H8          5.9564    1.1156    3.1153 H         1 <0>         0.4290
     33 H9          3.9971    4.0968   -4.7003 H         1 <0>         0.1370
     34 H10         1.8899    5.2889   -5.2168 H         1 <0>         0.1358
     35 H11        -0.1625    4.7430   -3.7435 H         1 <0>         0.1866
@<TRIPOS>BOND
     1    1    6 ar
     2    1    2 ar
     3    1   27 1
     4    2    3 ar
     5    2   28 1
     6    3    4 ar
     7    3    8 1
     8    4    5 ar
     9    4   29 1
    10    5    6 ar
    11    5    7 1
    12    6   30 1
    13    8    9 1
    14    8   18 1
    15    8   10 1
    16   10   15 2
    17   10   11 1
    18   11   12 2
    19   11   22 1
    20   12   13 1
    21   13   14 1
    22   13   15 1
    23   15   16 1
    24   16   17 1
    25   17   18 2
    26   17   21 1
    27   18   19 1
    28   19   20 3
    29   21   31 1
    30   21   32 1
    31   22   26 1
    32   22   23 2
    33   23   24 1
    34   23   33 1
    35   24   25 2
    36   24   34 1
    37   25   26 1
    38   25   35 1
@<TRIPOS>MOLECULE
ZINC06704468
   36    38     0     0     0
SMALL
USER_CHARGES
2-(4-aminophenyl)-3-(p-tolyl)thiazolidin-4-one
@<TRIPOS>ATOM
      1 C1          2.4899    1.0450   -0.0162 C.3       1 <0>        -0.1165
      2 C2          1.1761    1.7831   -0.0002 C.ar      1 <0>        -0.0820
      3 C3          0.8335    2.5583    1.0924 C.ar      1 <0>        -0.1068
      4 C4         -0.3721    3.2318    1.1124 C.ar      1 <0>        -0.0976
      5 C5         -1.2363    3.1379    0.0293 C.ar      1 <0>         0.1381
      6 C6         -0.8895    2.3581   -1.0662 C.ar      1 <0>        -0.1122
      7 C7          0.3155    1.6833   -1.0780 C.ar      1 <0>        -0.1073
      8 N1         -2.4561    3.8232    0.0442 N.am      1 <0>        -0.5630
      9 C8         -3.7283    3.0843   -0.0637 C.3       1 <0>         0.2453
     10 H1         -3.9137    2.7717   -1.0913 H         1 <0>         0.1189
     11 S1         -4.9387    4.3718    0.4700 S.3       1 <0>        -0.2485
     12 C9         -3.8420    5.8242    0.1654 C.3       1 <0>        -0.0924
     13 C10        -2.4816    5.1455    0.1499 C.2       1 <0>         0.5130
     14 O1         -1.4570    5.7894    0.2309 O.2       1 <0>        -0.5020
     15 C11        -3.7490    1.9025    0.8713 C.ar      1 <0>        -0.1596
     16 C12        -3.0366    1.9474    2.0557 C.ar      1 <0>        -0.0285
     17 C13        -3.0580    0.8683    2.9174 C.ar      1 <0>        -0.1979
     18 C14        -3.7870   -0.2673    2.5879 C.ar      1 <0>         0.2336
     19 C15        -4.4969   -0.3111    1.3947 C.ar      1 <0>        -0.1992
     20 C16        -4.4757    0.7736    0.5402 C.ar      1 <0>        -0.0404
     21 N2         -3.8058   -1.3627    3.4542 N.pl3     1 <0>        -0.8742
     22 H2          2.3548    0.0533    0.4156 H         1 <0>         0.0721
     23 H3          2.8402    0.9491   -1.0439 H         1 <0>         0.0679
     24 H4          3.2248    1.5987    0.5680 H         1 <0>         0.0679
     25 H5          1.5075    2.6337    1.9329 H         1 <0>         0.1275
     26 H6         -0.6411    3.8335    1.9680 H         1 <0>         0.1223
     27 H7         -1.5612    2.2798   -1.9083 H         1 <0>         0.1240
     28 H8          0.5857    1.0767   -1.9297 H         1 <0>         0.1278
     29 H9         -3.9122    6.5484    0.9771 H         1 <0>         0.1424
     30 H10        -4.0612    6.2901   -0.7952 H         1 <0>         0.1339
     31 H11        -2.4662    2.8288    2.3090 H         1 <0>         0.1201
     32 H12        -2.5049    0.9057    3.8443 H         1 <0>         0.1226
     33 H13        -5.0644   -1.1927    1.1353 H         1 <0>         0.1248
     34 H14        -5.0277    0.7403   -0.3875 H         1 <0>         0.1258
     35 H15        -4.3150   -2.1553    3.2229 H         1 <0>         0.4001
     36 H16        -3.3097   -1.3309    4.2871 H         1 <0>         0.4000
@<TRIPOS>BOND
     1    1    2 1
     2    1   22 1
     3    1   23 1
     4    1   24 1
     5    2    7 ar
     6    2    3 ar
     7    3    4 ar
     8    3   25 1
     9    4    5 ar
    10    4   26 1
    11    5    6 ar
    12    5    8 1
    13    6    7 ar
    14    6   27 1
    15    7   28 1
    16    8   13 am
    17    8    9 1
    18    9   10 1
    19    9   11 1
    20    9   15 1
    21   11   12 1
    22   12   13 1
    23   12   29 1
    24   12   30 1
    25   13   14 2
    26   15   20 ar
    27   15   16 ar
    28   16   17 ar
    29   16   31 1
    30   17   18 ar
    31   17   32 1
    32   18   19 ar
    33   18   21 1
    34   19   20 ar
    35   19   33 1
    36   20   34 1
    37   21   35 1
    38   21   36 1
@<TRIPOS>MOLECULE
ZINC26892014
   55    58     0     0     0
SMALL
USER_CHARGES
(4aR,4bR,6aR,7S,10aS,10bS,12aR)-4a,7-dihydroxy-6a,7-dimethyl-1,3,4,4b,5,6,8,9,10,10a,10b,11,12,12a-tetradecahydrochrysen-2-one
@<TRIPOS>ATOM
      1 C1          2.7577   -0.3484   -2.7622 C.3       1 <0>        -0.1689
      2 C2          2.2047    0.0706   -1.3040 C.3       1 <0>        -0.0280
      3 C3          3.2142   -0.2195   -0.2754 C.3       1 <0>        -0.0978
      4 C4          4.4757    0.6316   -0.4770 C.3       1 <0>        -0.1316
      5 C5          4.0723    2.0921   -0.3775 C.3       1 <0>        -0.0586
      6 H1          3.5382    2.2046    0.5775 H         1 <0>         0.0782
      7 C6          3.0900    2.4420   -1.3949 C.3       1 <0>        -0.0792
      8 H2          2.8294    3.4536   -1.0504 H         1 <0>         0.0760
      9 C7          1.8128    1.5215   -1.4023 C.3       1 <0>        -0.0543
     10 H3          1.2248    1.6244   -2.3262 H         1 <0>         0.0849
     11 C8          1.0394    1.8952   -0.1007 C.3       1 <0>        -0.1199
     12 C9         -0.2186    1.1022    0.0561 C.3       1 <0>        -0.1206
     13 C10         0.1557   -0.3764    0.1672 C.3       1 <0>        -0.1538
     14 C11         0.9906   -0.8311   -1.1453 C.3       1 <0>         0.1547
     15 C12         0.0380   -0.7779   -2.3775 C.3       1 <0>        -0.1858
     16 O1          1.3923   -2.1633   -0.9549 O.3       1 <0>        -0.5794
     17 C13         3.6778    2.5752   -2.7922 C.3       1 <0>        -0.1247
     18 C14         4.7755    3.6698   -2.8287 C.3       1 <0>        -0.1014
     19 C15         5.8652    3.2835   -1.7857 C.3       1 <0>        -0.0881
     20 H4          6.5989    4.0767   -1.5793 H         1 <0>         0.0692
     21 C16         5.3180    3.0622   -0.4530 C.3       1 <0>         0.1498
     22 C17         6.3164    2.6675    0.6020 C.3       1 <0>        -0.1183
     23 C18         7.2750    1.5184    0.0634 C.3       1 <0>        -0.1823
     24 C19         7.7016    1.7629   -1.3274 C.2       1 <0>         0.3422
     25 O2          8.9309    1.6868   -1.6636 O.2       1 <0>        -0.4815
     26 C20         6.6184    2.1631   -2.3240 C.3       1 <0>        -0.1546
     27 O3          4.7321    4.3307    0.0511 O.3       1 <0>        -0.5994
     28 H5          3.0607   -1.4058   -2.7495 H         1 <0>         0.0579
     29 H6          3.6242    0.2783   -3.0197 H         1 <0>         0.0629
     30 H7          1.9648   -0.2032   -3.5107 H         1 <0>         0.0590
     31 H8          2.7984    0.0009    0.7189 H         1 <0>         0.0615
     32 H9          3.4963   -1.2814   -0.3277 H         1 <0>         0.0751
     33 H10         5.2123    0.3856    0.3020 H         1 <0>         0.0707
     34 H11         4.9055    0.4214   -1.4675 H         1 <0>         0.0668
     35 H12         1.6775    1.7001    0.7738 H         1 <0>         0.0655
     36 H13         0.7701    2.9614   -0.1275 H         1 <0>         0.0604
     37 H14        -0.7458    1.4269    0.9653 H         1 <0>         0.0630
     38 H15        -0.8648    1.2627   -0.8195 H         1 <0>         0.0626
     39 H16         0.7741   -0.5317    1.0636 H         1 <0>         0.0654
     40 H17        -0.7596   -0.9816    0.2438 H         1 <0>         0.0566
     41 H18        -0.8188   -1.4466   -2.2077 H         1 <0>         0.0551
     42 H19         0.5831   -1.1013   -3.2766 H         1 <0>         0.0687
     43 H20        -0.3227    0.2518   -2.5179 H         1 <0>         0.0636
     44 H21         0.6370   -2.9519   -0.8223 H         1 <0>         0.4039
     45 H22         4.1242    1.6166   -3.0951 H         1 <0>         0.0730
     46 H23         2.8818    2.8490   -3.5003 H         1 <0>         0.0657
     47 H24         5.2118    3.7180   -3.8373 H         1 <0>         0.0707
     48 H25         4.3311    4.6434   -2.5745 H         1 <0>         0.0734
     49 H26         6.9261    3.5414    0.8750 H         1 <0>         0.0746
     50 H27         5.7839    2.2996    1.4914 H         1 <0>         0.0901
     51 H28         8.1743    1.4653    0.6946 H         1 <0>         0.0936
     52 H29         6.7463    0.5543    0.0965 H         1 <0>         0.1173
     53 H30         5.9407    1.3135   -2.4940 H         1 <0>         0.1083
     54 H31         7.0833    2.4575   -3.2765 H         1 <0>         0.0964
     55 H32         5.3564    5.2332    0.1264 H         1 <0>         0.3914
@<TRIPOS>BOND
     1    1    2 1
     2    1   28 1
     3    1   29 1
     4    1   30 1
     5    2    9 1
     6    2   14 1
     7    2    3 1
     8    3    4 1
     9    3   31 1
    10    3   32 1
    11    4    5 1
    12    4   33 1
    13    4   34 1
    14    5    6 1
    15    5   21 1
    16    5    7 1
    17    7    8 1
    18    7    9 1
    19    7   17 1
    20    9   10 1
    21    9   11 1
    22   11   12 1
    23   11   35 1
    24   11   36 1
    25   12   13 1
    26   12   37 1
    27   12   38 1
    28   13   14 1
    29   13   39 1
    30   13   40 1
    31   14   15 1
    32   14   16 1
    33   15   41 1
    34   15   42 1
    35   15   43 1
    36   16   44 1
    37   17   18 1
    38   17   45 1
    39   17   46 1
    40   18   19 1
    41   18   47 1
    42   18   48 1
    43   19   20 1
    44   19   26 1
    45   19   21 1
    46   21   22 1
    47   21   27 1
    48   22   23 1
    49   22   49 1
    50   22   50 1
    51   23   24 1
    52   23   51 1
    53   23   52 1
    54   24   25 2
    55   24   26 1
    56   26   53 1
    57   26   54 1
    58   27   55 1
@<TRIPOS>MOLECULE
ZINC41637267
   32    34     0     0     0
SMALL
USER_CHARGES

@<TRIPOS>ATOM
      1 C1         -0.0452    1.5268    0.0135 C.3       1 <0>        -0.1064
      2 C2          0.1319    0.0307   -0.0240 C.2       1 <0>        -0.0989
      3 C3          0.0958   -0.6278   -1.1921 C.2       1 <0>        -0.1268
      4 S1          0.3488   -2.3283   -0.7195 S.3       1 <0>         0.1080
      5 C4          0.4962   -2.1084    1.0339 C.ar      1 <0>         0.1293
      6 C5          0.3497   -0.7141    1.2034 C.ar      1 <0>        -0.1700
      7 C6          0.4324   -0.2513    2.5462 C.ar      1 <0>         0.1891
      8 N1          0.6391   -1.1260    3.5186 N.ar      1 <0>        -0.5176
      9 C7          0.7717   -2.4188    3.2850 C.ar      1 <0>         0.3285
     10 N2          0.6948   -2.9090    2.0625 N.ar      1 <0>        -0.4871
     11 S2          0.2626    1.4642    2.9105 S.3       1 <0>         0.0871
     12 C8          0.5776    1.5656    4.6412 C.ar      1 <0>        -0.2344
     13 C9          1.7942    2.0494    5.0997 C.ar      1 <0>        -0.0134
     14 C10         2.0391    2.1280    6.4579 C.ar      1 <0>        -0.1888
     15 C11         1.0743    1.7255    7.3631 C.ar      1 <0>        -0.0373
     16 C12        -0.1410    1.2416    6.9152 C.ar      1 <0>        -0.2068
     17 C13        -0.3979    1.1650    5.5546 C.ar      1 <0>         0.2832
     18 N3         -1.6297    0.6819    5.0990 N.pl3     1 <0>        -0.8650
     19 C14        -0.1101   -0.0646   -2.5746 C.3       1 <0>        -0.0738
     20 H1          0.9326    2.0081    0.0311 H         1 <0>         0.0822
     21 H2         -0.5933    1.8500   -0.8715 H         1 <0>         0.0800
     22 H3         -0.6030    1.8044    0.9078 H         1 <0>         0.0744
     23 H4          0.9389   -3.0908    4.1137 H         1 <0>         0.2078
     24 H5          2.5501    2.3643    4.3956 H         1 <0>         0.1275
     25 H6          2.9869    2.5046    6.8131 H         1 <0>         0.1251
     26 H7          1.2708    1.7890    8.4231 H         1 <0>         0.1263
     27 H8         -0.8919    0.9275    7.6250 H         1 <0>         0.1249
     28 H9         -1.8063    0.6251    4.1469 H         1 <0>         0.3988
     29 H10        -2.3068    0.4037    5.7354 H         1 <0>         0.4006
     30 H11         0.8554    0.1946   -3.0088 H         1 <0>         0.0862
     31 H12        -0.6020   -0.8090   -3.2006 H         1 <0>         0.0794
     32 H13        -0.7328    0.8281   -2.5142 H         1 <0>         0.0879
@<TRIPOS>BOND
     1    1    2 1
     2    1   20 1
     3    1   21 1
     4    1   22 1
     5    2    6 1
     6    2    3 2
     7    3    4 1
     8    3   19 1
     9    4    5 1
    10    5   10 ar
    11    5    6 ar
    12    6    7 ar
    13    7    8 ar
    14    7   11 1
    15    8    9 ar
    16    9   10 ar
    17    9   23 1
    18   11   12 1
    19   12   17 ar
    20   12   13 ar
    21   13   14 ar
    22   13   24 1
    23   14   15 ar
    24   14   25 1
    25   15   16 ar
    26   15   26 1
    27   16   17 ar
    28   16   27 1
    29   17   18 1
    30   18   28 1
    31   18   29 1
    32   19   30 1
    33   19   31 1
    34   19   32 1
@<TRIPOS>MOLECULE
ZINC50519052
   30    32     0     0     0
SMALL
USER_CHARGES

@<TRIPOS>ATOM
      1 C1         -0.0168    1.3895    0.0097 C.ar      1 <0>        -0.1004
      2 C2          1.1394    2.1075    0.0025 C.ar      1 <0>        -0.0650
      3 C3          2.3762    1.4395   -0.0128 C.ar      1 <0>         0.0988
      4 C4          2.3927    0.0228   -0.0205 C.ar      1 <0>        -0.0652
      5 C5          1.1819   -0.6861   -0.0124 C.ar      1 <0>        -0.0700
      6 C6          0.0021   -0.0041    0.0020 C.ar      1 <0>        -0.0752
      7 Br1        -1.6293   -0.9603    0.0130 Br        1 <0>        -0.0439
      8 C7          3.6346   -0.6475   -0.0359 C.ar      1 <0>         0.0537
      9 C8          4.7891    0.1231   -0.0427 C.ar      1 <0>         0.1510
     10 C9          4.6887    1.5147   -0.0343 C.ar      1 <0>         0.1015
     11 N1          3.5260    2.1224   -0.0197 N.ar      1 <0>        -0.4379
     12 N2          6.0478   -0.4930   -0.0574 N.pl3     1 <0>        -0.8580
     13 O1          3.6980   -2.0036   -0.0433 O.3       1 <0>        -0.3040
     14 C10         3.7160   -2.6453   -1.3200 C.3       1 <0>         0.0589
     15 C11         2.4483   -3.4640   -1.6159 C.3       1 <0>        -0.1572
     16 C12         3.3725   -4.5214   -2.2426 C.3       1 <0>        -0.1401
     17 C13         4.4837   -3.9777   -1.3290 C.3       1 <0>        -0.1362
     18 H1         -0.9641    1.9080    0.0261 H         1 <0>         0.1396
     19 H2          1.1068    3.1870    0.0082 H         1 <0>         0.1454
     20 H3          1.1849   -1.7661   -0.0186 H         1 <0>         0.1414
     21 H4          5.5917    2.1071   -0.0397 H         1 <0>         0.1658
     22 H5          6.1142   -1.4607   -0.0629 H         1 <0>         0.4059
     23 H6          6.8527    0.0484   -0.0622 H         1 <0>         0.4045
     24 H7          4.0010   -1.9717   -2.1282 H         1 <0>         0.0885
     25 H8          1.9331   -3.8102   -0.7199 H         1 <0>         0.0932
     26 H9          1.7792   -2.9887   -2.3332 H         1 <0>         0.0727
     27 H10         3.0814   -5.5465   -2.0135 H         1 <0>         0.0794
     28 H11         3.5625   -4.3613   -3.3039 H         1 <0>         0.0841
     29 H12         5.4576   -3.9173   -1.8146 H         1 <0>         0.0744
     30 H13         4.5249   -4.4645   -0.3545 H         1 <0>         0.0942
@<TRIPOS>BOND
     1    1    6 ar
     2    1    2 ar
     3    1   18 1
     4    2    3 ar
     5    2   19 1
     6    3   11 ar
     7    3    4 ar
     8    4    5 ar
     9    4    8 ar
    10    5    6 ar
    11    5   20 1
    12    6    7 1
    13    8    9 ar
    14    8   13 1
    15    9   10 ar
    16    9   12 1
    17   10   11 ar
    18   10   21 1
    19   12   22 1
    20   12   23 1
    21   13   14 1
    22   14   17 1
    23   14   15 1
    24   14   24 1
    25   15   16 1
    26   15   25 1
    27   15   26 1
    28   16   17 1
    29   16   27 1
    30   16   28 1
    31   17   29 1
    32   17   30 1
@<TRIPOS>MOLECULE
ZINC43424715
   40    42     0     0     0
SMALL
USER_CHARGES

@<TRIPOS>ATOM
      1 C1         -0.0167    1.3779    0.0096 C.ar      1 <0>        -0.1254
      2 C2          1.1692    2.0897    0.0021 C.ar      1 <0>        -0.0793
      3 C3          2.3812    1.4171   -0.0131 C.ar      1 <0>         0.1239
      4 C4          2.4001    0.0221   -0.0208 C.ar      1 <0>         0.2138
      5 C5          1.2068   -0.6833   -0.0132 C.ar      1 <0>        -0.1478
      6 C6          0.0021   -0.0041    0.0020 C.ar      1 <0>        -0.1349
      7 C7         -1.2939   -0.7731    0.0108 C.3       1 <0>         0.5075
      8 F1         -2.3679    0.1233    0.0263 F         1 <0>        -0.1763
      9 F2         -1.3698   -1.5721   -1.1351 F         1 <0>        -0.1769
     10 F3         -1.3471   -1.5843    1.1493 F         1 <0>        -0.1769
     11 N1          3.6209   -0.6635   -0.0366 N.pl3     1 <0>        -0.8680
     12 N2          3.5829    2.1356   -0.0212 N.pl3     1 <0>        -0.6732
     13 C8          4.2216    2.5383   -1.2844 C.3       1 <0>         0.1080
     14 C9          4.5342    4.0371   -1.2190 C.3       1 <0>         0.0468
     15 O1          5.2577    4.3198   -0.0178 O.3       1 <0>        -0.3705
     16 C10         4.5368    4.0198    1.1769 C.3       1 <0>         0.0847
     17 H1          3.5895    4.5588    1.1646 H         1 <0>         0.0562
     18 C11         4.2508    2.5212    1.2364 C.3       1 <0>         0.1459
     19 H2          3.6082    2.2963    2.0876 H         1 <0>         0.0873
     20 C12         5.5721    1.7541    1.3334 C.3       1 <0>        -0.1278
     21 C13         6.3387    2.1993    2.5792 C.3       1 <0>        -0.1183
     22 C14         6.6405    3.6965    2.4789 C.3       1 <0>        -0.1180
     23 C15         5.3358    4.4474    2.4037 C.3       1 <0>        -0.1109
     24 H3         -0.9600    1.9035    0.0260 H         1 <0>         0.1362
     25 H4          1.1509    3.1695    0.0078 H         1 <0>         0.1316
     26 H5          1.2178   -1.7632   -0.0195 H         1 <0>         0.1316
     27 H6          4.4550   -0.1685   -0.0422 H         1 <0>         0.4030
     28 H7          3.6324   -1.6334   -0.0419 H         1 <0>         0.3988
     29 H8          5.1460    1.9774   -1.4221 H         1 <0>         0.0579
     30 H9          3.5443    2.3418   -2.1156 H         1 <0>         0.0790
     31 H10         5.1370    4.3207   -2.0817 H         1 <0>         0.0996
     32 H11         3.6028    4.6033   -1.2241 H         1 <0>         0.0525
     33 H12         5.3669    0.6855    1.3968 H         1 <0>         0.0591
     34 H13         6.1736    1.9547    0.4468 H         1 <0>         0.0711
     35 H14         5.7342    2.0086    3.4659 H         1 <0>         0.0612
     36 H15         7.2737    1.6435    2.6491 H         1 <0>         0.0642
     37 H16         7.1968    4.0158    3.3602 H         1 <0>         0.0641
     38 H17         7.2321    3.8896    1.5840 H         1 <0>         0.0716
     39 H18         5.5552    5.5131    2.3393 H         1 <0>         0.0713
     40 H19         4.7505    4.2533    3.3025 H         1 <0>         0.0774
@<TRIPOS>BOND
     1    1    6 ar
     2    1    2 ar
     3    1   24 1
     4    2    3 ar
     5    2   25 1
     6    3    4 ar
     7    3   12 1
     8    4    5 ar
     9    4   11 1
    10    5    6 ar
    11    5   26 1
    12    6    7 1
    13    7    8 1
    14    7    9 1
    15    7   10 1
    16   11   27 1
    17   11   28 1
    18   12   18 1
    19   12   13 1
    20   13   14 1
    21   13   29 1
    22   13   30 1
    23   14   15 1
    24   14   31 1
    25   14   32 1
    26   15   16 1
    27   16   17 1
    28   16   23 1
    29   16   18 1
    30   18   19 1
    31   18   20 1
    32   20   21 1
    33   20   33 1
    34   20   34 1
    35   21   22 1
    36   21   35 1
    37   21   36 1
    38   22   23 1
    39   22   37 1
    40   22   38 1
    41   23   39 1
    42   23   40 1
@<TRIPOS>MOLECULE
ZINC32105928
   40    42     0     0     0
SMALL
USER_CHARGES
3,5,7-trimethyladamantane-1-carbohydroxamic acid
@<TRIPOS>ATOM
      1 C1         -1.4333   -0.5336    0.0129 C.3       1 <0>        -0.1438
      2 C2          0.0021   -0.0041    0.0020 C.3       1 <0>        -0.0559
      3 C3         -0.0187    1.5258    0.0104 C.3       1 <0>        -0.0992
      4 C4          1.4167    2.0553   -0.0004 C.3       1 <0>        -0.0575
      5 C5          2.1328    1.5619   -1.2592 C.3       1 <0>        -0.0992
      6 C6          2.1536    0.0321   -1.2676 C.3       1 <0>        -0.0558
      7 C7          0.7182   -0.4975   -1.2568 C.3       1 <0>        -0.0979
      8 C8          2.8936   -0.4747   -0.0281 C.3       1 <0>        -0.0965
      9 C9          2.1775    0.0187    1.2307 C.3       1 <0>        -0.0528
     10 C10         0.7421   -0.5109    1.2415 C.3       1 <0>        -0.0965
     11 C11         2.1567    1.5485    1.2391 C.3       1 <0>        -0.0833
     12 C12         2.9063   -0.4805    2.4516 C.2       1 <0>         0.5334
     13 O1          3.3641    0.3095    3.2498 O.2       1 <0>        -0.5243
     14 N1          3.0494   -1.8049    2.6564 N.am      1 <0>        -0.5980
     15 O2          3.7343   -2.2740    3.8036 O.3       1 <0>        -0.3524
     16 C13         2.8697   -0.4613   -2.5264 C.3       1 <0>        -0.1438
     17 C14         1.3960    3.5852    0.0080 C.3       1 <0>        -0.1433
     18 H1         -1.9481   -0.1788    0.9180 H         1 <0>         0.0568
     19 H2         -1.4184   -1.6335    0.0068 H         1 <0>         0.0561
     20 H3         -1.9653   -0.1692   -0.8782 H         1 <0>         0.0586
     21 H4         -0.5507    1.8901   -0.8808 H         1 <0>         0.0666
     22 H5         -0.5336    1.8806    0.9154 H         1 <0>         0.0648
     23 H6          1.6007    1.9263   -2.1503 H         1 <0>         0.0666
     24 H7          3.1648    1.9427   -1.2671 H         1 <0>         0.0648
     25 H8          0.7331   -1.5974   -1.2629 H         1 <0>         0.0641
     26 H9          0.1862   -0.1331   -2.1480 H         1 <0>         0.0674
     27 H10         2.9085   -1.5746   -0.0342 H         1 <0>         0.0661
     28 H11         3.9256   -0.0940   -0.0359 H         1 <0>         0.0713
     29 H12         0.2272   -0.1562    2.1465 H         1 <0>         0.0713
     30 H13         0.7570   -1.6108    1.2355 H         1 <0>         0.0661
     31 H14         3.1887    1.9293    1.2313 H         1 <0>         0.0721
     32 H15         1.6419    1.9032    2.1441 H         1 <0>         0.0721
     33 H16         2.6342   -2.5214    1.9324 H         1 <0>         0.4218
     34 H17         3.8511   -3.3549    3.9708 H         1 <0>         0.4168
     35 H18         2.8846   -1.5612   -2.5324 H         1 <0>         0.0561
     36 H19         3.9017   -0.0805   -2.5342 H         1 <0>         0.0568
     37 H20         2.3376   -0.0969   -3.4175 H         1 <0>         0.0586
     38 H21         2.4280    3.9659    0.0002 H         1 <0>         0.0571
     39 H22         0.8811    3.9399    0.9130 H         1 <0>         0.0571
     40 H23         0.8640    3.9496   -0.8832 H         1 <0>         0.0573
@<TRIPOS>BOND
     1    1    2 1
     2    1   18 1
     3    1   19 1
     4    1   20 1
     5    2    7 1
     6    2   10 1
     7    2    3 1
     8    3    4 1
     9    3   21 1
    10    3   22 1
    11    4   11 1
    12    4    5 1
    13    4   17 1
    14    5    6 1
    15    5   23 1
    16    5   24 1
    17    6    7 1
    18    6    8 1
    19    6   16 1
    20    7   25 1
    21    7   26 1
    22    8    9 1
    23    8   27 1
    24    8   28 1
    25    9   10 1
    26    9   11 1
    27    9   12 1
    28   10   29 1
    29   10   30 1
    30   11   31 1
    31   11   32 1
    32   12   13 2
    33   12   14 am
    34   14   15 1
    35   14   33 1
    36   15   34 1
    37   16   35 1
    38   16   36 1
    39   16   37 1
    40   17   38 1
    41   17   39 1
    42   17   40 1
@<TRIPOS>MOLECULE
ZINC37906099
   36    38     0     0     0
SMALL
USER_CHARGES

@<TRIPOS>ATOM
      1 C1         -0.0184    1.5028    0.0103 C.3       1 <0>        -0.0758
      2 C2          0.0021   -0.0041    0.0020 C.2       1 <0>        -0.0084
      3 C3         -1.0783   -0.8055    0.0027 C.2       1 <0>        -0.2170
      4 C4         -0.6011   -2.1363   -0.0068 C.2       1 <0>        -0.1943
      5 C5          0.7423   -2.0686   -0.0126 C.2       1 <0>        -0.0373
      6 O1          1.1020   -0.7746   -0.0131 O.3       1 <0>        -0.1669
      7 C6          1.6840   -3.2450   -0.0226 C.3       1 <0>         0.2093
      8 N1          1.9828   -3.6196   -1.4070 N.pl3     1 <0>        -0.6254
      9 C7          1.1435   -4.5967   -2.1137 C.3       1 <0>         0.1268
     10 C8          2.0747   -5.5692   -2.8495 C.3       1 <0>        -0.1334
     11 C9          2.8733   -4.7914   -3.8954 C.3       1 <0>        -0.0618
     12 C10         3.5283   -3.5880   -3.2707 C.ar      1 <0>        -0.2260
     13 C11         3.0688   -3.0482   -2.0795 C.ar      1 <0>         0.2551
     14 C12         3.6902   -1.9297   -1.5337 C.ar      1 <0>        -0.2380
     15 C13         4.7663   -1.3500   -2.1767 C.ar      1 <0>        -0.0350
     16 C14         5.2282   -1.8807   -3.3654 C.ar      1 <0>        -0.2444
     17 C15         4.6163   -3.0049   -3.9123 C.ar      1 <0>         0.2516
     18 N2          5.0849   -3.5398   -5.1144 N.pl3     1 <0>        -0.8770
     19 H1          1.0042    1.8801    0.0026 H         1 <0>         0.0759
     20 H2         -0.5455    1.8639   -0.8728 H         1 <0>         0.0847
     21 H3         -0.5286    1.8543    0.9071 H         1 <0>         0.0854
     22 H4         -2.1119   -0.4924    0.0097 H         1 <0>         0.1461
     23 H5         -1.2002   -3.0349   -0.0086 H         1 <0>         0.1445
     24 H6          2.6082   -2.9750    0.4883 H         1 <0>         0.0923
     25 H7          1.2186   -4.0873    0.4893 H         1 <0>         0.1067
     26 H8          0.5304   -5.1433   -1.3972 H         1 <0>         0.0790
     27 H9          0.5041   -4.0832   -2.8318 H         1 <0>         0.0590
     28 H10         2.7583   -6.0303   -2.1366 H         1 <0>         0.0707
     29 H11         1.4822   -6.3404   -3.3416 H         1 <0>         0.0769
     30 H12         3.6404   -5.4400   -4.3186 H         1 <0>         0.0658
     31 H13         2.2033   -4.4648   -4.6906 H         1 <0>         0.0639
     32 H14         3.3303   -1.5136   -0.6043 H         1 <0>         0.1192
     33 H15         5.2464   -0.4815   -1.7504 H         1 <0>         0.1188
     34 H16         6.0702   -1.4275   -3.8674 H         1 <0>         0.1150
     35 H17         4.6518   -4.3169   -5.5010 H         1 <0>         0.3961
     36 H18         5.8434   -3.1341   -5.5628 H         1 <0>         0.3978
@<TRIPOS>BOND
     1    1    2 1
     2    1   19 1
     3    1   20 1
     4    1   21 1
     5    2    6 1
     6    2    3 2
     7    3    4 1
     8    3   22 1
     9    4    5 2
    10    4   23 1
    11    5    6 1
    12    5    7 1
    13    7    8 1
    14    7   24 1
    15    7   25 1
    16    8   13 1
    17    8    9 1
    18    9   10 1
    19    9   26 1
    20    9   27 1
    21   10   11 1
    22   10   28 1
    23   10   29 1
    24   11   12 1
    25   11   30 1
    26   11   31 1
    27   12   17 ar
    28   12   13 ar
    29   13   14 ar
    30   14   15 ar
    31   14   32 1
    32   15   16 ar
    33   15   33 1
    34   16   17 ar
    35   16   34 1
    36   17   18 1
    37   18   35 1
    38   18   36 1
@<TRIPOS>MOLECULE
ZINC43666330
   36    37     0     0     0
SMALL
USER_CHARGES

@<TRIPOS>ATOM
      1 C1         -0.0187    1.5258    0.0104 C.3       1 <0>        -0.1475
      2 C2          0.0021   -0.0041    0.0020 C.3       1 <0>        -0.0899
      3 H1         -1.0205   -0.3814    0.0098 H         1 <0>         0.0744
      4 C3          0.7182   -0.4975   -1.2568 C.3       1 <0>        -0.1207
      5 C4          0.7390   -2.0273   -1.2652 C.3       1 <0>         0.1695
      6 H2         -0.2836   -2.4046   -1.2575 H         1 <0>         0.0938
      7 C5          1.4790   -2.5342   -0.0257 C.3       1 <0>        -0.1137
      8 C6          0.7628   -2.0407    1.2331 C.3       1 <0>        -0.0610
      9 C7          0.7421   -0.5109    1.2415 C.3       1 <0>        -0.1073
     10 C8         -0.6726   -2.5703    1.2440 C.3       1 <0>        -0.1499
     11 C9          1.5028   -2.5476    2.4727 C.3       1 <0>        -0.1418
     12 N1          1.4247   -2.4998   -2.4705 N.pl3     1 <0>        -0.3877
     13 C10         0.8869   -3.2815   -3.4425 C.2       1 <0>         0.4006
     14 C11         1.8525   -3.4902   -4.3801 C.2       1 <0>        -0.3155
     15 C12         3.0052   -2.8173   -3.9651 C.2       1 <0>         0.1058
     16 N2          2.7497   -2.2208   -2.8288 N.2       1 <0>        -0.2892
     17 Br1         1.6668   -4.5093   -5.9622 Br        1 <0>        -0.0295
     18 N3         -0.4135   -3.7791   -3.4741 N.pl3     1 <0>        -0.8477
     19 H3          1.0039    1.9031    0.0027 H         1 <0>         0.0569
     20 H4         -0.5459    1.8868   -0.8726 H         1 <0>         0.0553
     21 H5         -0.5289    1.8773    0.9072 H         1 <0>         0.0583
     22 H6          0.1910   -0.1364   -2.1398 H         1 <0>         0.0661
     23 H7          1.7408   -0.1202   -1.2645 H         1 <0>         0.0813
     24 H8          1.4937   -3.6240   -0.0317 H         1 <0>         0.0667
     25 H9          2.5015   -2.1569   -0.0334 H         1 <0>         0.0811
     26 H10         1.7647   -0.1336    1.2338 H         1 <0>         0.0675
     27 H11         0.2319   -0.1594    2.1383 H         1 <0>         0.0683
     28 H12        -0.6578   -3.6602    1.2380 H         1 <0>         0.0562
     29 H13        -1.1828   -2.2188    2.1408 H         1 <0>         0.0607
     30 H14        -1.1998   -2.2092    0.3609 H         1 <0>         0.0562
     31 H15         2.5254   -2.1703    2.4649 H         1 <0>         0.0574
     32 H16         0.9926   -2.1961    3.3695 H         1 <0>         0.0589
     33 H17         1.5176   -3.6375    2.4667 H         1 <0>         0.0560
     34 H18         3.9459   -2.7902   -4.4950 H         1 <0>         0.1884
     35 H19        -1.0294   -3.5730   -2.7536 H         1 <0>         0.4020
     36 H20        -0.7034   -4.3318   -4.2167 H         1 <0>         0.4198
@<TRIPOS>BOND
     1    1    2 1
     2    1   19 1
     3    1   20 1
     4    1   21 1
     5    2    3 1
     6    2    9 1
     7    2    4 1
     8    4    5 1
     9    4   22 1
    10    4   23 1
    11    5    6 1
    12    5    7 1
    13    5   12 1
    14    7    8 1
    15    7   24 1
    16    7   25 1
    17    8    9 1
    18    8   10 1
    19    8   11 1
    20    9   26 1
    21    9   27 1
    22   10   28 1
    23   10   29 1
    24   10   30 1
    25   11   31 1
    26   11   32 1
    27   11   33 1
    28   12   16 1
    29   12   13 1
    30   13   14 2
    31   13   18 1
    32   14   15 1
    33   14   17 1
    34   15   16 2
    35   15   34 1
    36   18   35 1
    37   18   36 1
@<TRIPOS>MOLECULE
ZINC15147984
   42    43     0     0     0
SMALL
USER_CHARGES

@<TRIPOS>ATOM
      1 C1          0.3626    1.7761   -0.3156 C.3       1 <0>        -0.1266
      2 C2          0.3249    0.2692   -0.3609 C.2       1 <0>        -0.0574
      3 C3          0.3836   -0.3258   -1.5437 C.2       1 <0>        -0.2381
      4 C4          0.3453   -1.7945   -1.6498 C.2       1 <0>         0.3939
      5 O1          0.2031   -2.3039   -2.7391 O.2       1 <0>        -0.4402
      6 C5          0.5188   -2.5770   -0.3662 C.3       1 <0>        -0.1067
      7 H1          1.5942   -2.4851   -0.0822 H         1 <0>         0.0981
      8 C6         -0.3147   -1.8928    0.7133 C.3       1 <0>        -0.0192
      9 C7          0.2281   -0.4748    0.9404 C.3       1 <0>         0.1747
     10 C8          1.6040   -0.5052    1.5978 C.3       1 <0>         0.0496
     11 O2          2.0464    0.8321    1.8386 O.3       1 <0>        -0.5694
     12 O3         -0.6813    0.2252    1.7975 O.3       1 <0>        -0.5422
     13 C9         -0.2765   -2.6802    2.0191 C.3       1 <0>        -0.1070
     14 C10        -0.7354   -4.1204    1.7746 C.3       1 <0>        -0.1230
     15 C11         0.2306   -4.7893    0.8015 C.3       1 <0>        -0.1104
     16 C12         0.2464   -4.0565   -0.5437 C.3       1 <0>        -0.0415
     17 C13        -1.0524   -4.3539   -1.2901 C.3       1 <0>        -0.1583
     18 C14         1.4060   -4.6663   -1.3652 C.3       1 <0>        -0.1532
     19 C15        -1.7783   -1.7327    0.2696 C.3       1 <0>        -0.1513
     20 H2          1.3972    2.1116   -0.2442 H         1 <0>         0.0866
     21 H3         -0.0879    2.1782   -1.2230 H         1 <0>         0.0698
     22 H4         -0.1941    2.1275    0.5530 H         1 <0>         0.0715
     23 H5          0.4600    0.2667   -2.4429 H         1 <0>         0.1350
     24 H6          1.5431   -1.0436    2.5435 H         1 <0>         0.0687
     25 H7          2.3109   -1.0084    0.9381 H         1 <0>         0.0555
     26 H8          2.9168    0.8893    2.2561 H         1 <0>         0.3873
     27 H9         -0.4141    1.1329    1.9969 H         1 <0>         0.3835
     28 H10         0.7340   -2.7168    2.4254 H         1 <0>         0.0645
     29 H11        -0.9403   -2.2136    2.7491 H         1 <0>         0.0783
     30 H12        -0.7084   -4.6606    2.7288 H         1 <0>         0.0636
     31 H13        -1.7495   -4.1454    1.3955 H         1 <0>         0.0703
     32 H14         1.2376   -4.7810    1.2240 H         1 <0>         0.0619
     33 H15        -0.0753   -5.8252    0.6391 H         1 <0>         0.0677
     34 H16        -1.0646   -3.8044   -2.2314 H         1 <0>         0.0739
     35 H17        -1.1185   -5.4229   -1.4926 H         1 <0>         0.0572
     36 H18        -1.9012   -4.0467   -0.6791 H         1 <0>         0.0589
     37 H19         2.3454   -4.5197   -0.8320 H         1 <0>         0.0501
     38 H20         1.2305   -5.7328   -1.5053 H         1 <0>         0.0594
     39 H21         1.4597   -4.1760   -2.3372 H         1 <0>         0.0655
     40 H22        -2.2456   -2.7148    0.1976 H         1 <0>         0.0691
     41 H23        -2.3153   -1.1276    1.0001 H         1 <0>         0.0770
     42 H24        -1.8115   -1.2423   -0.7032 H         1 <0>         0.0530
@<TRIPOS>BOND
     1    1    2 1
     2    1   20 1
     3    1   21 1
     4    1   22 1
     5    2    9 1
     6    2    3 2
     7    3    4 1
     8    3   23 1
     9    4    5 2
    10    4    6 1
    11    6    7 1
    12    6   16 1
    13    6    8 1
    14    8    9 1
    15    8   13 1
    16    8   19 1
    17    9   10 1
    18    9   12 1
    19   10   11 1
    20   10   24 1
    21   10   25 1
    22   11   26 1
    23   12   27 1
    24   13   14 1
    25   13   28 1
    26   13   29 1
    27   14   15 1
    28   14   30 1
    29   14   31 1
    30   15   16 1
    31   15   32 1
    32   15   33 1
    33   16   17 1
    34   16   18 1
    35   17   34 1
    36   17   35 1
    37   17   36 1
    38   18   37 1
    39   18   38 1
    40   18   39 1
    41   19   40 1
    42   19   41 1
    43   19   42 1
@<TRIPOS>MOLECULE
ZINC61121094
   29    30     0     0     0
SMALL
USER_CHARGES

@<TRIPOS>ATOM
      1 C1         -0.0184    1.5028    0.0103 C.3       1 <0>        -0.0867
      2 C2          0.0021   -0.0041    0.0020 C.2       1 <0>        -0.0715
      3 C3          0.0081   -0.7988   -1.0795 C.2       1 <0>         0.0062
      4 N1          0.0282   -2.1117   -0.6782 N.pl3     1 <0>        -0.4263
      5 C4          0.0355   -2.1846    0.6803 C.2       1 <0>         0.4034
      6 C5          0.0257   -0.8868    1.1763 C.2       1 <0>        -0.1993
      7 C6          0.0335   -0.4903    2.5523 C.1       1 <0>         0.2939
      8 N2          0.0397   -0.1757    3.6439 N.1       1 <0>        -0.4479
      9 N3          0.0552   -3.3439    1.4334 N.pl3     1 <0>        -0.8465
     10 C7          0.0395   -3.2162   -1.5424 C.ar      1 <0>         0.1664
     11 C8         -1.0478   -3.4621   -2.3693 C.ar      1 <0>        -0.1257
     12 C9         -1.0357   -4.5519   -3.2214 C.ar      1 <0>         0.1190
     13 C10         0.0618   -5.3982   -3.2495 C.ar      1 <0>         0.0451
     14 C11         1.1482   -5.1535   -2.4240 C.ar      1 <0>         0.1193
     15 C12         1.1404   -4.0609   -1.5754 C.ar      1 <0>        -0.1350
     16 F1          2.2173   -5.9790   -2.4523 F         1 <0>        -0.1069
     17 F2          0.0725   -6.4625   -4.0817 F         1 <0>        -0.1068
     18 F3         -2.0941   -4.7917   -4.0261 F         1 <0>        -0.1065
     19 C13        -0.0056   -0.3245   -2.5098 C.3       1 <0>        -0.0853
     20 H1          1.0042    1.8801    0.0026 H         1 <0>         0.0721
     21 H2         -0.5455    1.8639   -0.8728 H         1 <0>         0.0711
     22 H3         -0.5286    1.8543    0.9071 H         1 <0>         0.0662
     23 H4          0.0651   -4.2082    0.9931 H         1 <0>         0.4033
     24 H5          0.0590   -3.2931    2.4020 H         1 <0>         0.4229
     25 H6         -1.9031   -2.8031   -2.3473 H         1 <0>         0.1659
     26 H7          1.9889   -3.8677   -0.9357 H         1 <0>         0.1635
     27 H8          1.0186   -0.1960   -2.8599 H         1 <0>         0.0749
     28 H9         -0.5125   -1.0619   -3.1323 H         1 <0>         0.0636
     29 H10        -0.5329    0.6274   -2.5720 H         1 <0>         0.0875
@<TRIPOS>BOND
     1    1    2 1
     2    1   20 1
     3    1   21 1
     4    1   22 1
     5    2    6 1
     6    2    3 2
     7    3    4 1
     8    3   19 1
     9    4    5 1
    10    4   10 1
    11    5    6 2
    12    5    9 1
    13    6    7 1
    14    7    8 3
    15    9   23 1
    16    9   24 1
    17   10   15 ar
    18   10   11 ar
    19   11   12 ar
    20   11   25 1
    21   12   13 ar
    22   12   18 1
    23   13   14 ar
    24   13   17 1
    25   14   15 ar
    26   14   16 1
    27   15   26 1
    28   19   27 1
    29   19   28 1
    30   19   29 1
@<TRIPOS>MOLECULE
ZINC03159286
   34    35     0     0     0
SMALL
USER_CHARGES
3-(2-bromophenyl)-1-(1-phenylethyl)urea
@<TRIPOS>ATOM
      1 C1         -1.7967    2.2000    1.4356 C.3       1 <0>        -0.1600
      2 C2         -1.2959    2.0578   -0.0032 C.3       1 <0>         0.2024
      3 H1         -2.0261    1.4989   -0.5885 H         1 <0>         0.1000
      4 C3         -1.1087    3.4256   -0.6074 C.ar      1 <0>        -0.0950
      5 C4          0.0254    4.1605   -0.3162 C.ar      1 <0>        -0.1152
      6 C5          0.1992    5.4134   -0.8739 C.ar      1 <0>        -0.1154
      7 C6         -0.7653    5.9351   -1.7155 C.ar      1 <0>        -0.1172
      8 C7         -1.9018    5.2025   -2.0025 C.ar      1 <0>        -0.1145
      9 C8         -2.0736    3.9478   -1.4483 C.ar      1 <0>        -0.1060
     10 N1         -0.0171    1.3431   -0.0067 N.am      1 <0>        -0.7333
     11 C9          0.0018   -0.0045   -0.0039 C.2       1 <0>         0.7090
     12 O1         -1.0426   -0.6271    0.0067 O.2       1 <0>        -0.5677
     13 N2          1.1783   -0.6620   -0.0127 N.am      1 <0>        -0.6851
     14 C10         1.2005   -2.0582    0.0852 C.ar      1 <0>         0.1937
     15 C11         0.1928   -2.8130   -0.5005 C.ar      1 <0>        -0.1152
     16 C12         0.2203   -4.1907   -0.4066 C.ar      1 <0>        -0.0843
     17 C13         1.2441   -4.8185    0.2791 C.ar      1 <0>        -0.1305
     18 C14         2.2465   -4.0703    0.8681 C.ar      1 <0>        -0.0724
     19 C15         2.2277   -2.6915    0.7734 C.ar      1 <0>        -0.1240
     20 Br1         3.5983   -1.6685    1.5802 Br        1 <0>        -0.0473
     21 H2         -2.7482    2.7317    1.4382 H         1 <0>         0.0703
     22 H3         -1.9321    1.2107    1.8726 H         1 <0>         0.0673
     23 H4         -1.0665    2.7589    2.0209 H         1 <0>         0.0592
     24 H5          0.7772    3.7544    0.3443 H         1 <0>         0.1196
     25 H6          1.0873    5.9857   -0.6499 H         1 <0>         0.1244
     26 H7         -0.6307    6.9151   -2.1491 H         1 <0>         0.1239
     27 H8         -2.6554    5.6101   -2.6601 H         1 <0>         0.1257
     28 H9         -2.9615    3.3754   -1.6725 H         1 <0>         0.1259
     29 H10         0.8161    1.8398   -0.0152 H         1 <0>         0.3979
     30 H11         2.0096   -0.1677   -0.0870 H         1 <0>         0.4091
     31 H12        -0.6095   -2.3234   -1.0324 H         1 <0>         0.1507
     32 H13        -0.5611   -4.7782   -0.8655 H         1 <0>         0.1337
     33 H14         1.2605   -5.8957    0.3550 H         1 <0>         0.1336
     34 H15         3.0446   -4.5636    1.4029 H         1 <0>         0.1366
@<TRIPOS>BOND
     1    1    2 1
     2    1   21 1
     3    1   22 1
     4    1   23 1
     5    2    3 1
     6    2    4 1
     7    2   10 1
     8    4    9 ar
     9    4    5 ar
    10    5    6 ar
    11    5   24 1
    12    6    7 ar
    13    6   25 1
    14    7    8 ar
    15    7   26 1
    16    8    9 ar
    17    8   27 1
    18    9   28 1
    19   10   11 am
    20   10   29 1
    21   11   12 2
    22   11   13 am
    23   13   14 1
    24   13   30 1
    25   14   19 ar
    26   14   15 ar
    27   15   16 ar
    28   15   31 1
    29   16   17 ar
    30   16   32 1
    31   17   18 ar
    32   17   33 1
    33   18   19 ar
    34   18   34 1
    35   19   20 1
@<TRIPOS>MOLECULE
ZINC36936982
   33    35     0     0     0
SMALL
USER_CHARGES

@<TRIPOS>ATOM
      1 C1         -0.0184    1.5028    0.0103 C.3       1 <0>        -0.1320
      2 C2          0.0021   -0.0041    0.0020 C.ar      1 <0>        -0.0441
      3 C3          0.0057   -0.6890   -1.1964 C.ar      1 <0>        -0.1269
      4 C4          0.0244   -2.0718   -1.2055 C.ar      1 <0>        -0.0920
      5 C5          0.0396   -2.7764   -0.0150 C.ar      1 <0>        -0.1306
      6 C6          0.0361   -2.1020    1.1889 C.ar      1 <0>        -0.0799
      7 C7          0.0231   -0.7084    1.2040 C.ar      1 <0>        -0.0468
      8 C8          0.0254    0.0222    2.4952 C.2       1 <0>         0.2066
      9 C9          0.0521   -0.5749    3.8322 C.2       1 <0>        -0.3173
     10 C10         0.0446    0.4710    4.7333 C.2       1 <0>         0.3804
     11 O1          0.0160    1.6170    4.0360 O.3       1 <0>        -0.1134
     12 N1          0.0097    1.3243    2.6533 N.2       1 <0>        -0.3099
     13 N2          0.0633    0.3579    6.1081 N.pl3     1 <0>        -0.8091
     14 C11         0.0811   -2.0207    4.1551 C.ar      1 <0>         0.0153
     15 C12         1.3006   -2.6815    4.2984 C.ar      1 <0>        -0.0829
     16 C13         1.3219   -4.0278    4.5996 C.ar      1 <0>        -0.1050
     17 C14         0.1354   -4.7235    4.7591 C.ar      1 <0>        -0.0228
     18 C15        -1.0785   -4.0735    4.6181 C.ar      1 <0>        -0.1044
     19 C16        -1.1119   -2.7249    4.3225 C.ar      1 <0>        -0.0165
     20 Cl1        -2.6348   -1.9089    4.1529 Cl        1 <0>        -0.0449
     21 Cl2         0.1704   -6.4176    5.1369 Cl        1 <0>        -0.0536
     22 H1          1.0042    1.8801    0.0026 H         1 <0>         0.0760
     23 H2         -0.5455    1.8639   -0.8728 H         1 <0>         0.0687
     24 H3         -0.5286    1.8543    0.9071 H         1 <0>         0.0951
     25 H4         -0.0064   -0.1440   -2.1288 H         1 <0>         0.1294
     26 H5          0.0269   -2.6037   -2.1455 H         1 <0>         0.1278
     27 H6          0.0538   -3.8562   -0.0279 H         1 <0>         0.1281
     28 H7          0.0479   -2.6531    2.1177 H         1 <0>         0.1305
     29 H8          0.0838   -0.5190    6.5223 H         1 <0>         0.4261
     30 H9          0.0560    1.1552    6.6605 H         1 <0>         0.4148
     31 H10         2.2269   -2.1404    4.1736 H         1 <0>         0.1434
     32 H11         2.2661   -4.5402    4.7108 H         1 <0>         0.1434
     33 H12        -2.0010   -4.6209    4.7436 H         1 <0>         0.1465
@<TRIPOS>BOND
     1    1    2 1
     2    1   22 1
     3    1   23 1
     4    1   24 1
     5    2    7 ar
     6    2    3 ar
     7    3    4 ar
     8    3   25 1
     9    4    5 ar
    10    4   26 1
    11    5    6 ar
    12    5   27 1
    13    6    7 ar
    14    6   28 1
    15    7    8 1
    16    8   12 2
    17    8    9 1
    18    9   10 2
    19    9   14 1
    20   10   11 1
    21   10   13 1
    22   11   12 1
    23   13   29 1
    24   13   30 1
    25   14   19 ar
    26   14   15 ar
    27   15   16 ar
    28   15   31 1
    29   16   17 ar
    30   16   32 1
    31   17   18 ar
    32   17   21 1
    33   18   19 ar
    34   18   33 1
    35   19   20 1
@<TRIPOS>MOLECULE
ZINC42175421
   37    40     0     0     0
SMALL
USER_CHARGES

@<TRIPOS>ATOM
      1 C1         -0.0167    1.3790    0.0096 C.ar      1 <0>        -0.0918
      2 C2          1.1683    2.0926    0.0021 C.ar      1 <0>        -0.1093
      3 C3          2.3785    1.4271   -0.0135 C.ar      1 <0>        -0.0148
      4 C4          2.4041    0.0326   -0.0212 C.ar      1 <0>         0.0151
      5 C5          1.2058   -0.6812   -0.0132 C.ar      1 <0>        -0.0152
      6 C6          0.0021   -0.0041    0.0020 C.ar      1 <0>        -0.1094
      7 Cl1         1.2273   -2.4170   -0.0233 Cl        1 <0>        -0.0487
      8 C7          3.6999   -0.6881   -0.0385 C.2       1 <0>        -0.3155
      9 C8          4.4205   -1.0828   -1.1862 C.2       1 <0>         0.1768
     10 N1          5.5061   -1.6883   -0.7968 N.2       1 <0>        -0.3199
     11 O1          5.5309   -1.7093    0.6178 O.3       1 <0>        -0.1105
     12 C9          4.4257   -1.0909    1.0659 C.2       1 <0>         0.3813
     13 N2          4.0780   -0.8964    2.3863 N.pl3     1 <0>        -0.8082
     14 C10         4.0051   -0.8455   -2.6152 C.3       1 <0>        -0.0202
     15 H1          3.0467   -0.3275   -2.6506 H         1 <0>         0.0915
     16 C11         3.9222   -2.1853   -3.3819 C.3       1 <0>        -0.1099
     17 C12         4.9714   -2.0496   -4.5273 C.3       1 <0>        -0.1020
     18 H2          5.3142   -2.9836   -4.9726 H         1 <0>         0.0993
     19 C13         4.3438   -1.0154   -5.5111 C.3       1 <0>        -0.1225
     20 C14         4.4118    0.3323   -4.7572 C.3       1 <0>        -0.1196
     21 C15         5.0952   -0.0238   -3.3688 C.3       1 <0>        -0.0903
     22 H3          5.5349    0.8054   -2.8146 H         1 <0>         0.1001
     23 C16         6.0657   -1.1774   -3.8165 C.3       1 <0>        -0.1270
     24 Cl2         3.8645    2.3245   -0.0240 Cl        1 <0>        -0.0487
     25 H4         -0.9604    1.9039    0.0260 H         1 <0>         0.1430
     26 H5          1.1471    3.1724    0.0082 H         1 <0>         0.1410
     27 H6         -0.9264   -0.5556    0.0083 H         1 <0>         0.1409
     28 H7          3.2528   -0.4373    2.6080 H         1 <0>         0.4250
     29 H8          4.6586   -1.2187    3.0933 H         1 <0>         0.4142
     30 H9          4.1818   -3.0156   -2.7251 H         1 <0>         0.0692
     31 H10         2.9236   -2.3250   -3.7958 H         1 <0>         0.0715
     32 H11         4.9251   -0.9655   -6.4318 H         1 <0>         0.0643
     33 H12         3.3082   -1.2775   -5.7282 H         1 <0>         0.0650
     34 H13         5.0266    1.0448   -5.3072 H         1 <0>         0.0666
     35 H14         3.4098    0.7329   -4.6036 H         1 <0>         0.0653
     36 H15         6.5090   -1.6925   -2.9643 H         1 <0>         0.0827
     37 H16         6.8246   -0.8248   -4.5150 H         1 <0>         0.0703
@<TRIPOS>BOND
     1    1    6 ar
     2    1    2 ar
     3    1   25 1
     4    2    3 ar
     5    2   26 1
     6    3    4 ar
     7    3   24 1
     8    4    5 ar
     9    4    8 1
    10    5    6 ar
    11    5    7 1
    12    6   27 1
    13    8   12 2
    14    8    9 1
    15    9   10 2
    16    9   14 1
    17   10   11 1
    18   11   12 1
    19   12   13 1
    20   13   28 1
    21   13   29 1
    22   14   15 1
    23   14   21 1
    24   14   16 1
    25   16   17 1
    26   16   30 1
    27   16   31 1
    28   17   18 1
    29   17   23 1
    30   17   19 1
    31   19   20 1
    32   19   32 1
    33   19   33 1
    34   20   21 1
    35   20   34 1
    36   20   35 1
    37   21   22 1
    38   21   23 1
    39   23   36 1
    40   23   37 1
@<TRIPOS>MOLECULE
ZINC04125127
   60    63     0     0     0
SMALL
USER_CHARGES

@<TRIPOS>ATOM
      1 C1         -0.0187    1.5251    0.0104 C.3       1 <0>        -0.1469
      2 C2          0.0021   -0.0041    0.0020 C.3       1 <0>        -0.0970
      3 H1          0.5109   -0.3602   -0.8924 H         1 <0>         0.0689
      4 C3         -1.4331   -0.5361    0.0230 C.3       1 <0>        -0.1121
      5 C4         -1.3712   -2.0580   -0.0856 C.3       1 <0>        -0.1309
      6 C5         -0.6485   -2.6472    1.1304 C.3       1 <0>         0.3094
      7 C6          0.7309   -2.0322    1.3163 C.3       1 <0>        -0.1054
      8 H2          1.3725   -2.4028    0.4889 H         1 <0>         0.0783
      9 C7          0.7319   -0.5133    1.2464 C.3       1 <0>        -0.1101
     10 C8          1.3582   -2.5189    2.6221 C.3       1 <0>         0.1596
     11 C9          2.6963   -1.8280    2.8692 C.3       1 <0>        -0.1379
     12 C10         2.5818   -0.4373    3.4598 C.3       1 <0>        -0.1184
     13 C11         1.6741   -0.4010    4.6817 C.3       1 <0>        -0.0892
     14 H3          1.5254    0.6512    4.9708 H         1 <0>         0.0674
     15 C12         0.3129   -1.0060    4.3664 C.3       1 <0>        -0.1137
     16 C13         0.4355   -2.4227    3.8213 C.3       1 <0>        -0.0853
     17 H4          0.8692   -3.0522    4.6267 H         1 <0>         0.0905
     18 C14        -0.9573   -2.9764    3.5245 C.3       1 <0>         0.1505
     19 O1         -1.4477   -2.4750    2.2875 O.3       1 <0>        -0.3861
     20 C15        -1.9294   -2.5058    4.6219 C.3       1 <0>        -0.1125
     21 C16        -1.4769   -3.0250    5.9836 C.3       1 <0>        -0.1135
     22 C17        -1.4794   -4.5559    5.9720 C.3       1 <0>        -0.0952
     23 C18        -0.5228   -5.0502    4.8877 C.3       1 <0>        -0.1080
     24 C19        -0.9482   -4.5032    3.5248 C.3       1 <0>        -0.1426
     25 C20        -1.0174   -5.0747    7.3354 C.3       1 <0>        -0.1482
     26 C21         2.3281   -1.1268    5.8572 C.3       1 <0>        -0.1485
     27 O2          1.6810   -3.9219    2.4336 O.3       1 <0>        -0.5553
     28 O3         -0.4930   -4.0517    0.8581 O.3       1 <0>        -0.5678
     29 H5          1.0039    1.9024    0.0027 H         1 <0>         0.0542
     30 H6         -0.5458    1.8862   -0.8726 H         1 <0>         0.0560
     31 H7         -0.5289    1.8767    0.9072 H         1 <0>         0.0557
     32 H8         -1.9157   -0.2510    0.9563 H         1 <0>         0.0730
     33 H9         -1.9873   -0.1272   -0.8202 H         1 <0>         0.0653
     34 H10        -2.3835   -2.4621   -0.1291 H         1 <0>         0.0723
     35 H11        -0.8326   -2.3378   -0.9914 H         1 <0>         0.0817
     36 H12         1.7755   -0.1709    1.1666 H         1 <0>         0.0699
     37 H13         0.2828   -0.0761    2.1293 H         1 <0>         0.0809
     38 H14         3.3003   -2.4628    3.5304 H         1 <0>         0.0713
     39 H15         3.2352   -1.7695    1.9123 H         1 <0>         0.0595
     40 H16         3.5878   -0.1047    3.7704 H         1 <0>         0.0578
     41 H17         2.2309    0.2822    2.7212 H         1 <0>         0.0730
     42 H18        -0.2646   -1.0346    5.3042 H         1 <0>         0.0724
     43 H19        -0.2375   -0.3732    3.6754 H         1 <0>         0.0707
     44 H20        -1.9740   -1.4201    4.6255 H         1 <0>         0.0718
     45 H21        -2.9225   -2.9021    4.3949 H         1 <0>         0.0655
     46 H22        -0.4732   -2.6671    6.2074 H         1 <0>         0.0686
     47 H23        -2.1639   -2.6713    6.7548 H         1 <0>         0.0645
     48 H24        -2.4862   -4.9176    5.7657 H         1 <0>         0.0684
     49 H25         0.4928   -4.7330    5.1163 H         1 <0>         0.0646
     50 H26        -0.5503   -6.1432    4.8574 H         1 <0>         0.0578
     51 H27        -1.9570   -4.8648    3.2982 H         1 <0>         0.0521
     52 H28        -0.2663   -4.8891    2.7712 H         1 <0>         0.1061
     53 H29        -1.6952   -4.7152    8.1096 H         1 <0>         0.0534
     54 H30        -1.0186   -6.1647    7.3288 H         1 <0>         0.0539
     55 H31        -0.0092   -4.7137    7.5388 H         1 <0>         0.0534
     56 H32         3.2726   -0.6417    6.1036 H         1 <0>         0.0537
     57 H33         1.6647   -1.0904    6.7212 H         1 <0>         0.0543
     58 H34         2.5135   -2.1659    5.5849 H         1 <0>         0.0558
     59 H35         2.3013   -4.0892    1.7109 H         1 <0>         0.3685
     60 H36        -1.3280   -4.5220    0.7283 H         1 <0>         0.3742
@<TRIPOS>BOND
     1    1    2 1
     2    1   29 1
     3    1   30 1
     4    1   31 1
     5    2    3 1
     6    2    9 1
     7    2    4 1
     8    4    5 1
     9    4   32 1
    10    4   33 1
    11    5    6 1
    12    5   34 1
    13    5   35 1
    14    6   19 1
    15    6    7 1
    16    6   28 1
    17    7    8 1
    18    7    9 1
    19    7   10 1
    20    9   36 1
    21    9   37 1
    22   10   16 1
    23   10   11 1
    24   10   27 1
    25   11   12 1
    26   11   38 1
    27   11   39 1
    28   12   13 1
    29   12   40 1
    30   12   41 1
    31   13   14 1
    32   13   15 1
    33   13   26 1
    34   15   16 1
    35   15   42 1
    36   15   43 1
    37   16   17 1
    38   16   18 1
    39   18   24 1
    40   18   19 1
    41   18   20 1
    42   20   21 1
    43   20   44 1
    44   20   45 1
    45   21   22 1
    46   21   46 1
    47   21   47 1
    48   22   23 1
    49   22   25 1
    50   22   48 1
    51   23   24 1
    52   23   49 1
    53   23   50 1
    54   24   51 1
    55   24   52 1
    56   25   53 1
    57   25   54 1
    58   25   55 1
    59   26   56 1
    60   26   57 1
    61   26   58 1
    62   27   59 1
    63   28   60 1
@<TRIPOS>MOLECULE
ZINC49185033
   33    35     0     0     0
SMALL
USER_CHARGES

@<TRIPOS>ATOM
      1 C1         -0.0187    1.5258    0.0104 C.3       1 <0>        -0.1697
      2 C2          0.0021   -0.0041    0.0020 C.3       1 <0>         0.1432
      3 H1         -1.0205   -0.3814    0.0098 H         1 <0>         0.1058
      4 C3          0.7421   -0.5109    1.2415 C.3       1 <0>        -0.0751
      5 C4         -0.0298   -0.1295    2.4784 C.2       1 <0>        -0.1232
      6 C5          0.2098    1.0761    3.1108 C.2       1 <0>        -0.1565
      7 C6         -0.5019    1.3887    4.2212 C.2       1 <0>        -0.1675
      8 S1         -1.5505   -0.0446    4.4034 S.3       1 <0>         0.0469
      9 C7         -0.9733   -0.9609    2.9841 C.2       1 <0>        -0.1676
     10 N1          0.6878   -0.4765   -1.2033 N.pl3     1 <0>        -0.5084
     11 C8          0.1453   -1.2738   -2.1984 C.ar      1 <0>         0.0530
     12 C9         -1.1000   -1.8510   -2.3956 C.ar      1 <0>        -0.0948
     13 C10        -1.3330   -2.6137   -3.5212 C.ar      1 <0>        -0.0917
     14 C11        -0.3284   -2.8081   -4.4588 C.ar      1 <0>        -0.0900
     15 C12         0.9147   -2.2424   -4.2784 C.ar      1 <0>        -0.0493
     16 C13         1.1657   -1.4666   -3.1439 C.ar      1 <0>         0.0892
     17 N2          2.2588   -0.7951   -2.6953 N.2       1 <0>        -0.5453
     18 C14         1.9786   -0.2084   -1.5583 C.2       1 <0>         0.5557
     19 N3          2.8577    0.5623   -0.8269 N.pl3     1 <0>        -0.8303
     20 Br1        -0.6681   -3.8576   -5.9947 Br        1 <0>        -0.0462
     21 H2          1.0039    1.9031    0.0027 H         1 <0>         0.0619
     22 H3         -0.5459    1.8868   -0.8726 H         1 <0>         0.0682
     23 H4         -0.5289    1.8773    0.9072 H         1 <0>         0.0864
     24 H5          0.8346   -1.5958    1.1912 H         1 <0>         0.0836
     25 H6          1.7350   -0.0630    1.2804 H         1 <0>         0.0768
     26 H7          0.9532    1.7585    2.7261 H         1 <0>         0.1344
     27 H8         -0.4482    2.2748    4.8364 H         1 <0>         0.1878
     28 H9         -1.2924   -1.9274    2.6228 H         1 <0>         0.1859
     29 H10        -1.8856   -1.7040   -1.6693 H         1 <0>         0.1277
     30 H11        -2.3034   -3.0628   -3.6736 H         1 <0>         0.1385
     31 H12         1.6924   -2.3980   -5.0114 H         1 <0>         0.1385
     32 H13         2.5723    0.9613    0.0100 H         1 <0>         0.4081
     33 H14         3.7613    0.7054   -1.1492 H         1 <0>         0.4242
@<TRIPOS>BOND
     1    1    2 1
     2    1   21 1
     3    1   22 1
     4    1   23 1
     5    2    3 1
     6    2    4 1
     7    2   10 1
     8    4    5 1
     9    4   24 1
    10    4   25 1
    11    5    9 2
    12    5    6 1
    13    6    7 2
    14    6   26 1
    15    7    8 1
    16    7   27 1
    17    8    9 1
    18    9   28 1
    19   10   18 1
    20   10   11 1
    21   11   16 ar
    22   11   12 ar
    23   12   13 ar
    24   12   29 1
    25   13   14 ar
    26   13   30 1
    27   14   15 ar
    28   14   20 1
    29   15   16 ar
    30   15   31 1
    31   16   17 1
    32   17   18 2
    33   18   19 1
    34   19   32 1
    35   19   33 1
@<TRIPOS>MOLECULE
ZINC01039594
   14    14     0     0     0
SMALL
USER_CHARGES
4-bromo-5-chloro-thiophene-2-sulfonamide
@<TRIPOS>ATOM
      1 C1         -0.0126    1.0758    0.0080 C.2       1 <0>         0.0235
      2 C2         -1.2138    1.7614    0.0173 C.2       1 <0>        -0.1551
      3 C3         -1.1956    3.1181    0.0293 C.2       1 <0>        -0.0640
      4 S1          0.5557    3.4642    0.0147 S.3       1 <0>         0.2775
      5 C4          1.1457    1.7793    0.0007 C.2       1 <0>        -0.7607
      6 S2          2.8043    1.1850   -0.0183 S.o2      1 <0>         2.7396
      7 O1          3.6120    2.2174    0.5304 O.2       1 <0>        -0.9476
      8 O2          2.7718   -0.1273    0.5259 O.2       1 <0>        -0.9449
      9 N1          3.2502    1.0283   -1.6054 N.pl3     1 <0>        -1.2461
     10 Cl1        -2.5294    4.2292    0.0473 Cl        1 <0>         0.0631
     11 Br1        -2.8554    0.8227    0.0200 Br        1 <0>         0.0007
     12 H1          0.0021   -0.0041    0.0020 H         1 <0>         0.1692
     13 H2          2.6230    1.2544   -2.3100 H         1 <0>         0.4188
     14 H3          4.1385    0.7104   -1.8306 H         1 <0>         0.4258
@<TRIPOS>BOND
     1    1    5 2
     2    1    2 1
     3    1   12 1
     4    2    3 2
     5    2   11 1
     6    3    4 1
     7    3   10 1
     8    4    5 1
     9    5    6 1
    10    6    7 2
    11    6    8 2
    12    6    9 1
    13    9   13 1
    14    9   14 1
@<TRIPOS>MOLECULE
ZINC20192850
   35    37     0     0     0
SMALL
USER_CHARGES
(2-aminophenyl)-(3,4-dihydro-1H-isoquinolin-2-yl)methanone
@<TRIPOS>ATOM
      1 C1         -7.7033   -2.5403    1.8194 C.ar      1 <0>        -0.1168
      2 C2         -7.9495   -1.3541    1.1530 C.ar      1 <0>        -0.1194
      3 C3         -6.9472   -0.7670    0.4088 C.ar      1 <0>        -0.1122
      4 C4         -5.6934   -1.3575    0.3248 C.ar      1 <0>        -0.0964
      5 C5         -5.4445   -2.5346    0.9939 C.ar      1 <0>        -0.0701
      6 C6         -6.4574   -3.1261    1.7393 C.ar      1 <0>        -0.1195
      7 C7         -4.1061   -3.2246    0.9639 C.3       1 <0>        -0.0984
      8 C8         -3.2782   -2.7555   -0.2377 C.3       1 <0>         0.1070
      9 N1         -3.3367   -1.2847   -0.2725 N.am      1 <0>        -0.6058
     10 C9         -4.6459   -0.6685   -0.5132 C.3       1 <0>         0.1427
     11 C10        -2.2308   -0.5348   -0.0960 C.2       1 <0>         0.5775
     12 O1         -1.1460   -1.0706    0.0260 O.2       1 <0>        -0.5405
     13 C11        -2.3363    0.9350   -0.0508 C.ar      1 <0>        -0.2283
     14 C12        -2.9551    1.6279   -1.0946 C.ar      1 <0>        -0.0403
     15 C13        -3.0501    3.0013   -1.0466 C.ar      1 <0>        -0.1920
     16 C14        -2.5351    3.7017    0.0330 C.ar      1 <0>        -0.0454
     17 C15        -1.9255    3.0319    1.0736 C.ar      1 <0>        -0.2107
     18 C16        -1.8154    1.6471    1.0407 C.ar      1 <0>         0.2795
     19 N2         -1.1983    0.9709    2.0850 N.pl3     1 <0>        -0.8839
     20 H1         -8.4847   -3.0069    2.4009 H         1 <0>         0.1233
     21 H2         -8.9222   -0.8890    1.2150 H         1 <0>         0.1247
     22 H3         -7.1392    0.1592   -0.1124 H         1 <0>         0.1247
     23 H4         -6.2671   -4.0526    2.2607 H         1 <0>         0.1221
     24 H5         -3.5538   -2.9936    1.8867 H         1 <0>         0.0804
     25 H6         -4.2556   -4.3118    0.8885 H         1 <0>         0.0890
     26 H7         -2.2384   -3.0950   -0.1215 H         1 <0>         0.1015
     27 H8         -3.7007   -3.1778   -1.1614 H         1 <0>         0.0768
     28 H9         -4.9051   -0.7667   -1.5777 H         1 <0>         0.0829
     29 H10        -4.6027    0.3970   -0.2431 H         1 <0>         0.1060
     30 H11        -3.3589    1.0872   -1.9378 H         1 <0>         0.1234
     31 H12        -3.5287    3.5351   -1.8542 H         1 <0>         0.1242
     32 H13        -2.6152    4.7783    0.0616 H         1 <0>         0.1247
     33 H14        -1.5304    3.5847    1.9131 H         1 <0>         0.1251
     34 H15        -0.7911    1.5319    2.9390 H         1 <0>         0.4198
     35 H16        -1.1167   -0.1257    2.0581 H         1 <0>         0.4242
@<TRIPOS>BOND
     1    1    6 ar
     2    1    2 ar
     3    1   20 1
     4    2    3 ar
     5    2   21 1
     6    3    4 ar
     7    3   22 1
     8    4   10 1
     9    4    5 ar
    10    5    6 ar
    11    5    7 1
    12    6   23 1
    13    7    8 1
    14    7   24 1
    15    7   25 1
    16    8    9 1
    17    8   26 1
    18    8   27 1
    19    9   10 1
    20    9   11 am
    21   10   28 1
    22   10   29 1
    23   11   12 2
    24   11   13 1
    25   13   18 ar
    26   13   14 ar
    27   14   15 ar
    28   14   30 1
    29   15   16 ar
    30   15   31 1
    31   16   17 ar
    32   16   32 1
    33   17   18 ar
    34   17   33 1
    35   18   19 1
    36   19   34 1
    37   19   35 1
@<TRIPOS>MOLECULE
ZINC36937222
   26    27     0     0     0
SMALL
USER_CHARGES

@<TRIPOS>ATOM
      1 C1         -1.8146    0.7761   -0.2142 C.3       1 <0>        -0.0683
      2 C2         -0.7938   -0.3263   -0.0976 C.2       1 <0>        -0.3260
      3 C3         -0.0623   -0.8954   -1.1609 C.2       1 <0>         0.1559
      4 N1          0.7232   -1.8214   -0.6616 N.2       1 <0>        -0.2988
      5 O1          0.5121   -1.8667    0.7378 O.3       1 <0>        -0.1005
      6 C4         -0.4121   -0.9423    1.0498 C.2       1 <0>         0.3538
      7 N2         -0.8919   -0.6685    2.3176 N.pl3     1 <0>        -0.8145
      8 C5         -0.1629   -0.5145   -2.5923 C.ar      1 <0>         0.0202
      9 C6         -0.0844    0.8253   -2.9664 C.ar      1 <0>        -0.0892
     10 C7         -0.1780    1.1739   -4.2984 C.ar      1 <0>        -0.0867
     11 C8         -0.3495    0.1957   -5.2615 C.ar      1 <0>        -0.1062
     12 C9         -0.4281   -1.1357   -4.8956 C.ar      1 <0>        -0.0728
     13 C10        -0.3303   -1.4958   -3.5665 C.ar      1 <0>        -0.1574
     14 C11        -0.4098   -2.9475   -3.1699 C.3       1 <0>         0.5025
     15 F1         -0.5773   -3.7350   -4.3140 F         1 <0>        -0.1776
     16 F2          0.7710   -3.3180   -2.5176 F         1 <0>        -0.1569
     17 F3         -1.4969   -3.1371   -2.3100 F         1 <0>        -0.1753
     18 H1         -1.3350    1.7368   -0.0266 H         1 <0>         0.0615
     19 H2         -2.2403    0.7724   -1.2177 H         1 <0>         0.0678
     20 H3         -2.6069    0.6166    0.5172 H         1 <0>         0.0598
     21 H4         -1.5638    0.0196    2.4437 H         1 <0>         0.4262
     22 H5         -0.5564   -1.1645    3.0807 H         1 <0>         0.4131
     23 H6          0.0492    1.5898   -2.2152 H         1 <0>         0.1417
     24 H7         -0.1176    2.2122   -4.5894 H         1 <0>         0.1413
     25 H8         -0.4227    0.4728   -6.3027 H         1 <0>         0.1412
     26 H9         -0.5620   -1.8954   -5.6515 H         1 <0>         0.1453
@<TRIPOS>BOND
     1    1    2 1
     2    1   18 1
     3    1   19 1
     4    1   20 1
     5    2    6 2
     6    2    3 1
     7    3    4 2
     8    3    8 1
     9    4    5 1
    10    5    6 1
    11    6    7 1
    12    7   21 1
    13    7   22 1
    14    8   13 ar
    15    8    9 ar
    16    9   10 ar
    17    9   23 1
    18   10   11 ar
    19   10   24 1
    20   11   12 ar
    21   11   25 1
    22   12   13 ar
    23   12   26 1
    24   13   14 1
    25   14   15 1
    26   14   16 1
    27   14   17 1
@<TRIPOS>MOLECULE
ZINC44068996
   44    45     0     0     0
SMALL
USER_CHARGES

@<TRIPOS>ATOM
      1 C1         -0.4710    1.7958   -0.1574 C.3       1 <0>        -0.1478
      2 C2         -0.4276    0.3044    0.1813 C.3       1 <0>        -0.0982
      3 C3          0.3218    0.1025    1.4998 C.3       1 <0>        -0.1535
      4 C4         -1.8549   -0.2291    0.3191 C.3       1 <0>        -0.1120
      5 H1         -2.3707    0.2686    1.1402 H         1 <0>         0.0849
      6 C5         -2.6330   -0.0431   -1.0020 C.3       1 <0>        -0.1181
      7 C6         -3.5314   -1.2868   -1.1591 C.3       1 <0>        -0.1194
      8 C7         -3.2623   -2.1585    0.0746 C.3       1 <0>        -0.0413
      9 C8         -1.8436   -1.7714    0.5354 C.3       1 <0>         0.1440
     10 C9         -0.7943   -2.3391   -0.4230 C.3       1 <0>        -0.1288
     11 C10        -0.9653   -3.8480   -0.5799 C.3       1 <0>        -0.1700
     12 H2         -0.8928   -4.3278    0.3961 H         1 <0>         0.1098
     13 C11        -2.3450   -4.1239   -1.1874 C.3       1 <0>         0.1215
     14 H3         -2.4441   -3.5886   -2.1317 H         1 <0>         0.0629
     15 C12        -3.4114   -3.6349   -0.2123 C.3       1 <0>        -0.0966
     16 O1         -2.5008   -5.5267   -1.4108 O.3       1 <0>        -0.5601
     17 C13         0.1087   -4.3869   -1.4894 C.2       1 <0>         0.3501
     18 O2          0.6297   -3.6629   -2.3036 O.2       1 <0>        -0.4482
     19 C14         0.5324   -5.8291   -1.3830 C.3       1 <0>        -0.2109
     20 O3         -1.5963   -2.1292    1.8965 O.3       1 <0>        -0.5435
     21 C15        -4.2414   -1.7655    1.1826 C.3       1 <0>        -0.1360
     22 H4          0.5458    2.1759   -0.2556 H         1 <0>         0.0543
     23 H5         -1.0049    1.9396   -1.0968 H         1 <0>         0.0568
     24 H6         -0.9850    2.3344    0.6388 H         1 <0>         0.0543
     25 H7          0.0863   -0.2342   -0.6149 H         1 <0>         0.0768
     26 H8         -0.2766    0.4955    2.3217 H         1 <0>         0.0607
     27 H9          0.5007   -0.9612    1.6569 H         1 <0>         0.0502
     28 H10         1.2752    0.6293    1.4602 H         1 <0>         0.0591
     29 H11        -3.2460    0.8568   -0.9513 H         1 <0>         0.0684
     30 H12        -1.9380    0.0241   -1.8389 H         1 <0>         0.0682
     31 H13        -4.5802   -0.9914   -1.1888 H         1 <0>         0.0746
     32 H14        -3.2672   -1.8289   -2.0671 H         1 <0>         0.0675
     33 H15        -0.9028   -1.8624   -1.3972 H         1 <0>         0.0880
     34 H16         0.2008   -2.1296   -0.0306 H         1 <0>         0.0731
     35 H17        -3.3148   -4.1912    0.7201 H         1 <0>         0.0796
     36 H18        -4.3991   -3.8183   -0.6354 H         1 <0>         0.0775
     37 H19        -1.8453   -5.9043   -2.0131 H         1 <0>         0.3732
     38 H20        -0.3244   -6.4747   -1.5759 H         1 <0>         0.0962
     39 H21         1.3134   -6.0333   -2.1155 H         1 <0>         0.0852
     40 H22         0.9147   -6.0225   -0.3808 H         1 <0>         0.0971
     41 H23        -0.6981   -1.9347    2.1974 H         1 <0>         0.3738
     42 H24        -5.2623   -1.9463    0.8462 H         1 <0>         0.0529
     43 H25        -4.0412   -2.3618    2.0727 H         1 <0>         0.0650
     44 H26        -4.1183   -0.7084    1.4181 H         1 <0>         0.0585
@<TRIPOS>BOND
     1    1    2 1
     2    1   22 1
     3    1   23 1
     4    1   24 1
     5    2    3 1
     6    2    4 1
     7    2   25 1
     8    3   26 1
     9    3   27 1
    10    3   28 1
    11    4    5 1
    12    4    9 1
    13    4    6 1
    14    6    7 1
    15    6   29 1
    16    6   30 1
    17    7    8 1
    18    7   31 1
    19    7   32 1
    20    8   15 1
    21    8    9 1
    22    8   21 1
    23    9   10 1
    24    9   20 1
    25   10   11 1
    26   10   33 1
    27   10   34 1
    28   11   12 1
    29   11   13 1
    30   11   17 1
    31   13   14 1
    32   13   15 1
    33   13   16 1
    34   15   35 1
    35   15   36 1
    36   16   37 1
    37   17   18 2
    38   17   19 1
    39   19   38 1
    40   19   39 1
    41   19   40 1
    42   20   41 1
    43   21   42 1
    44   21   43 1
    45   21   44 1
@<TRIPOS>MOLECULE
ZINC54401575
   38    39     0     0     0
SMALL
USER_CHARGES

@<TRIPOS>ATOM
      1 C1         -0.4643    0.4191    0.7645 C.3       1 <0>        -0.1550
      2 C2          0.0631   -0.8500    0.0921 C.3       1 <0>        -0.0994
      3 C3          0.7391   -0.4832   -1.2305 C.3       1 <0>        -0.0806
      4 C4         -0.2763    0.1972   -2.1508 C.3       1 <0>        -0.1580
      5 C5          1.9031    0.4724   -0.9605 C.3       1 <0>        -0.1682
      6 C6          1.2587   -1.7332   -1.8928 C.2       1 <0>         0.5212
      7 O1          0.9865   -2.8217   -1.4319 O.2       1 <0>        -0.5027
      8 N1          2.0258   -1.6417   -2.9971 N.am      1 <0>        -0.5528
      9 C7          2.2193   -0.3279   -3.6029 C.3       1 <0>         0.0755
     10 C8          1.8231   -0.4048   -5.0854 C.3       1 <0>        -0.1273
     11 S1          2.9936   -1.5251   -5.9101 S.3       1 <0>        -0.1185
     12 C9          3.0756   -2.9046   -4.8124 C.ar      1 <0>        -0.1717
     13 C10         2.6032   -2.8078   -3.5053 C.ar      1 <0>         0.1962
     14 C11         2.6961   -3.9124   -2.6626 C.ar      1 <0>        -0.2140
     15 C12         3.2532   -5.0969   -3.1180 C.ar      1 <0>         0.2357
     16 C13         3.7227   -5.1887   -4.4214 C.ar      1 <0>        -0.2014
     17 C14         3.6266   -4.0956   -5.2680 C.ar      1 <0>        -0.0283
     18 N2          3.3423   -6.2019   -2.2632 N.pl3     1 <0>        -0.8737
     19 H1          0.3649    1.0999    0.9568 H         1 <0>         0.0583
     20 H2         -1.1878    0.9038    0.1089 H         1 <0>         0.0581
     21 H3         -0.9459    0.1577    1.7067 H         1 <0>         0.0587
     22 H4          0.7866   -1.3347    0.7477 H         1 <0>         0.0686
     23 H5         -0.7661   -1.5308   -0.1002 H         1 <0>         0.0724
     24 H6         -0.3838    1.2430   -1.8631 H         1 <0>         0.0783
     25 H7          0.0712    0.1379   -3.1822 H         1 <0>         0.0669
     26 H8         -1.2399   -0.3047   -2.0626 H         1 <0>         0.0695
     27 H9          2.5315    0.0650   -0.1685 H         1 <0>         0.0657
     28 H10         2.4942    0.5908   -1.8687 H         1 <0>         0.0752
     29 H11         1.5129    1.4423   -0.6520 H         1 <0>         0.0777
     30 H12         1.5925    0.4048   -3.0946 H         1 <0>         0.1342
     31 H13         3.2665   -0.0373   -3.5190 H         1 <0>         0.0934
     32 H14         0.8098   -0.7955   -5.1776 H         1 <0>         0.0952
     33 H15         1.8804    0.5864   -5.5353 H         1 <0>         0.1279
     34 H16         2.3323   -3.8456   -1.6479 H         1 <0>         0.1659
     35 H17         4.1547   -6.1123   -4.7775 H         1 <0>         0.1265
     36 H18         3.9919   -4.1653   -6.2820 H         1 <0>         0.1315
     37 H19         3.0141   -6.1383   -1.3526 H         1 <0>         0.3998
     38 H20         3.7321   -7.0311   -2.5814 H         1 <0>         0.3994
@<TRIPOS>BOND
     1    1    2 1
     2    1   19 1
     3    1   20 1
     4    1   21 1
     5    2    3 1
     6    2   22 1
     7    2   23 1
     8    3    4 1
     9    3    5 1
    10    3    6 1
    11    4   24 1
    12    4   25 1
    13    4   26 1
    14    5   27 1
    15    5   28 1
    16    5   29 1
    17    6    7 2
    18    6    8 am
    19    8   13 1
    20    8    9 1
    21    9   10 1
    22    9   30 1
    23    9   31 1
    24   10   11 1
    25   10   32 1
    26   10   33 1
    27   11   12 1
    28   12   17 ar
    29   12   13 ar
    30   13   14 ar
    31   14   15 ar
    32   14   34 1
    33   15   16 ar
    34   15   18 1
    35   16   17 ar
    36   16   35 1
    37   17   36 1
    38   18   37 1
    39   18   38 1
@<TRIPOS>MOLECULE
ZINC01422389
   47    49     0     0     0
SMALL
USER_CHARGES
3-[2-(5-chloro-2-methyl-1H-indol-3-yl)ethyl]-5-ethyl-4-hydroxy-4,5-dimethyl-oxazolidin-2-one
@<TRIPOS>ATOM
      1 C1          2.8076    4.0707    1.2175 C.3       1 <0>        -0.1561
      2 C2          1.2786    4.0511    1.2687 C.3       1 <0>        -0.1229
      3 C3          0.7349    3.3674    0.0126 C.3       1 <0>         0.1137
      4 C4         -0.8059    3.3576    0.0269 C.3       1 <0>         0.3060
      5 N1         -1.1471    1.9268    0.0176 N.am      1 <0>        -0.6384
      6 C5         -0.0144    1.2109    0.0087 C.2       1 <0>         0.6455
      7 O1          0.0021   -0.0041    0.0020 O.2       1 <0>        -0.5126
      8 O2          1.0965    1.9561    0.0021 O.3       1 <0>        -0.3154
      9 C6         -2.5041    1.3745    0.0206 C.3       1 <0>         0.1495
     10 C7         -2.9702    1.1750    1.4642 C.3       1 <0>        -0.0620
     11 C8         -4.3660    0.6069    1.4673 C.2       1 <0>        -0.1674
     12 C9         -5.5123    1.3053    1.4816 C.2       1 <0>         0.0918
     13 N2         -6.5801    0.4498    1.4760 N.pl3     1 <0>        -0.5894
     14 H1         -7.5114    0.7209    1.4816 H         1 <0>         0.4173
     15 C10        -6.1353   -0.8541    1.4676 C.ar      1 <0>         0.1013
     16 C11        -4.7292   -0.8123    1.4618 C.ar      1 <0>        -0.0876
     17 C12        -3.9964   -2.0007    1.4533 C.ar      1 <0>        -0.0590
     18 C13        -4.6579   -3.2089    1.4508 C.ar      1 <0>        -0.0578
     19 C14        -6.0464   -3.2490    1.4566 C.ar      1 <0>        -0.0892
     20 C15        -6.7828   -2.0848    1.4644 C.ar      1 <0>        -0.1167
     21 Cl1        -3.7515   -4.6894    1.4409 Cl        1 <0>        -0.0696
     22 C16        -5.6089    2.8091    1.4973 C.3       1 <0>        -0.0977
     23 C17        -1.3359    4.0329    1.2934 C.3       1 <0>        -0.1835
     24 O3         -1.3229    4.0032   -1.1384 O.3       1 <0>        -0.5409
     25 C18         1.2551    4.0638   -1.2465 C.3       1 <0>        -0.1415
     26 H2          3.1826    3.0484    1.1690 H         1 <0>         0.0640
     27 H3          3.1345    4.6199    0.3345 H         1 <0>         0.0629
     28 H4          3.1950    4.5577    2.1124 H         1 <0>         0.0630
     29 H5          0.9036    5.0734    1.3172 H         1 <0>         0.0922
     30 H6          0.9517    3.5019    2.1517 H         1 <0>         0.0775
     31 H7         -3.1783    2.0644   -0.4868 H         1 <0>         0.0801
     32 H8         -2.5073    0.4158   -0.4980 H         1 <0>         0.0916
     33 H9         -2.2960    0.4851    1.9717 H         1 <0>         0.0783
     34 H10        -2.9670    2.1337    1.9828 H         1 <0>         0.0754
     35 H11        -2.9168   -1.9728    1.4492 H         1 <0>         0.1352
     36 H12        -6.5536   -4.2024    1.4545 H         1 <0>         0.1370
     37 H13        -7.8619   -2.1279    1.4681 H         1 <0>         0.1299
     38 H14        -5.6386    3.1821    0.4736 H         1 <0>         0.0801
     39 H15        -6.5170    3.1094    2.0200 H         1 <0>         0.0720
     40 H16        -4.7408    3.2236    2.0099 H         1 <0>         0.0851
     41 H17        -0.9887    5.0656    1.3270 H         1 <0>         0.0881
     42 H18        -2.4258    4.0161    1.2852 H         1 <0>         0.0726
     43 H19        -0.9709    3.4982    2.1702 H         1 <0>         0.0817
     44 H20        -2.2887    4.0251   -1.1801 H         1 <0>         0.3840
     45 H21         0.8398    3.5770   -2.1289 H         1 <0>         0.0714
     46 H22         0.9534    5.1111   -1.2335 H         1 <0>         0.0854
     47 H23         2.3429    3.9994   -1.2742 H         1 <0>         0.0750
@<TRIPOS>BOND
     1    1    2 1
     2    1   26 1
     3    1   27 1
     4    1   28 1
     5    2    3 1
     6    2   29 1
     7    2   30 1
     8    3    8 1
     9    3    4 1
    10    3   25 1
    11    4    5 1
    12    4   23 1
    13    4   24 1
    14    5    6 am
    15    5    9 1
    16    6    7 2
    17    6    8 1
    18    9   10 1
    19    9   31 1
    20    9   32 1
    21   10   11 1
    22   10   33 1
    23   10   34 1
    24   11   16 1
    25   11   12 2
    26   12   13 1
    27   12   22 1
    28   13   14 1
    29   13   15 1
    30   15   20 ar
    31   15   16 ar
    32   16   17 ar
    33   17   18 ar
    34   17   35 1
    35   18   19 ar
    36   18   21 1
    37   19   20 ar
    38   19   36 1
    39   20   37 1
    40   22   38 1
    41   22   39 1
    42   22   40 1
    43   23   41 1
    44   23   42 1
    45   23   43 1
    46   24   44 1
    47   25   45 1
    48   25   46 1
    49   25   47 1
@<TRIPOS>MOLECULE
ZINC07795452
   45    48     0     0     0
SMALL
USER_CHARGES
N'-(2-benzo[e]benzofuran-1-ylacetyl)-4-methyl-benzohydrazide
@<TRIPOS>ATOM
      1 C1          7.7889    4.8411   -8.6728 C.3       1 <0>        -0.1231
      2 C2          7.3176    5.0155   -7.2521 C.ar      1 <0>        -0.0522
      3 C3          8.2338    4.9979   -6.2155 C.ar      1 <0>        -0.1282
      4 C4          7.8090    5.1570   -4.9126 C.ar      1 <0>        -0.0484
      5 C5          6.4517    5.3364   -4.6414 C.ar      1 <0>        -0.1392
      6 C6          5.5321    5.3483   -5.6913 C.ar      1 <0>        -0.0800
      7 C7          5.9707    5.1929   -6.9901 C.ar      1 <0>        -0.1269
      8 C8          5.9893    5.5070   -3.2475 C.2       1 <0>         0.5638
      9 O1          6.7918    5.4912   -2.3347 O.2       1 <0>        -0.5353
     10 N1          4.6779    5.6800   -2.9889 N.am      1 <0>        -0.5204
     11 N2          4.2398    5.8417   -1.6681 N.am      1 <0>        -0.5239
     12 C9          2.9284    6.0147   -1.4095 C.2       1 <0>         0.5125
     13 O2          2.1277    6.0305   -2.3203 O.2       1 <0>        -0.5215
     14 C10         2.4571    6.1886    0.0113 C.3       1 <0>        -0.0598
     15 C11         0.9602    6.3626    0.0262 C.2       1 <0>        -0.1582
     16 C12         0.2823    7.5224    0.0384 C.2       1 <0>         0.0210
     17 O3         -1.0388    7.2796    0.0497 O.3       1 <0>        -0.1754
     18 C13        -1.2846    5.9537    0.0453 C.ar      1 <0>         0.0429
     19 C14        -0.0469    5.3036    0.0304 C.ar      1 <0>        -0.1077
     20 C15        -0.0056    3.8471    0.0227 C.ar      1 <0>        -0.0014
     21 C16         1.2025    3.1420    0.0074 C.ar      1 <0>        -0.1104
     22 C17         1.1891    1.7784    0.0003 C.ar      1 <0>        -0.1074
     23 C18        -0.0126    1.0758    0.0080 C.ar      1 <0>        -0.1212
     24 C19        -1.2068    1.7311    0.0172 C.ar      1 <0>        -0.0956
     25 C20        -1.2302    3.1348    0.0306 C.ar      1 <0>        -0.0636
     26 C21        -2.4453    3.8460    0.0449 C.ar      1 <0>        -0.0827
     27 C22        -2.4648    5.2017    0.0523 C.ar      1 <0>        -0.0886
     28 H1          7.7856    3.7816   -8.9293 H         1 <0>         0.0777
     29 H2          7.1217    5.3798   -9.3457 H         1 <0>         0.0715
     30 H3          8.8002    5.2356   -8.7712 H         1 <0>         0.0719
     31 H4          9.2838    4.8590   -6.4267 H         1 <0>         0.1334
     32 H5          8.5252    5.1431   -4.1043 H         1 <0>         0.1393
     33 H6          4.4800    5.4822   -5.4878 H         1 <0>         0.1264
     34 H7          5.2606    5.2056   -7.8038 H         1 <0>         0.1322
     35 H8          4.0375    5.6926   -3.7174 H         1 <0>         0.4316
     36 H9          4.8802    5.8291   -0.9397 H         1 <0>         0.4331
     37 H10         2.9296    7.0697    0.4456 H         1 <0>         0.1159
     38 H11         2.7263    5.3076    0.5938 H         1 <0>         0.1126
     39 H12         0.7327    8.5040    0.0397 H         1 <0>         0.2105
     40 H13         2.1417    3.6752    0.0017 H         1 <0>         0.1197
     41 H14         2.1231    1.2363   -0.0119 H         1 <0>         0.1245
     42 H15         0.0021   -0.0041    0.0020 H         1 <0>         0.1257
     43 H16        -2.1316    1.1732    0.0186 H         1 <0>         0.1308
     44 H17        -3.3783    3.3020    0.0506 H         1 <0>         0.1405
     45 H18        -3.4154    5.7143    0.0634 H         1 <0>         0.1337
@<TRIPOS>BOND
     1    1    2 1
     2    1   28 1
     3    1   29 1
     4    1   30 1
     5    2    7 ar
     6    2    3 ar
     7    3    4 ar
     8    3   31 1
     9    4    5 ar
    10    4   32 1
    11    5    6 ar
    12    5    8 1
    13    6    7 ar
    14    6   33 1
    15    7   34 1
    16    8    9 2
    17    8   10 am
    18   10   11 1
    19   10   35 1
    20   11   12 am
    21   11   36 1
    22   12   13 2
    23   12   14 1
    24   14   15 1
    25   14   37 1
    26   14   38 1
    27   15   19 1
    28   15   16 2
    29   16   17 1
    30   16   39 1
    31   17   18 1
    32   18   27 ar
    33   18   19 ar
    34   19   20 ar
    35   20   25 ar
    36   20   21 ar
    37   21   22 ar
    38   21   40 1
    39   22   23 ar
    40   22   41 1
    41   23   24 ar
    42   23   42 1
    43   24   25 ar
    44   24   43 1
    45   25   26 ar
    46   26   27 ar
    47   26   44 1
    48   27   45 1
@<TRIPOS>MOLECULE
ZINC32500675
   54    57     0     0     0
SMALL
USER_CHARGES

@<TRIPOS>ATOM
      1 C1         -0.0184    1.5028    0.0103 C.3       1 <0>        -0.1157
      2 C2          0.0021   -0.0041    0.0020 C.ar      1 <0>        -0.0996
      3 C3          0.0055   -0.6840   -1.2128 C.ar      1 <0>        -0.0735
      4 C4          0.0239   -2.0463   -1.2554 C.ar      1 <0>        -0.1036
      5 C5          0.0395   -2.7759   -0.0589 C.ar      1 <0>         0.1860
      6 C6          0.0359   -2.0822    1.1758 C.ar      1 <0>        -0.1961
      7 C7          0.0225   -0.6830    1.1847 C.ar      1 <0>        -0.0749
      8 C8          0.0524   -2.8428    2.3704 C.ar      1 <0>         0.4765
      9 N1          0.0704   -4.1653    2.2706 N.ar      1 <0>        -0.5937
     10 C9          0.0730   -4.7697    1.0933 C.ar      1 <0>         0.3783
     11 N2          0.0582   -4.1169   -0.0446 N.ar      1 <0>        -0.5301
     12 C10         0.0943   -6.2762    1.0581 C.3       1 <0>         0.1248
     13 N3         -1.2836   -6.7854    1.0538 N.3       1 <0>        -0.5250
     14 C11        -1.9662   -6.4678    2.3152 C.3       1 <0>         0.0412
     15 C12        -3.4453   -6.8520    2.2025 C.3       1 <0>         0.1529
     16 N4         -3.5319   -8.2599    1.7859 N.pl3     1 <0>        -0.6776
     17 C13        -2.7628   -8.6852    0.6066 C.3       1 <0>         0.1515
     18 C14        -1.3105   -8.2289    0.7822 C.3       1 <0>         0.0409
     19 C15        -4.3233   -9.1690    2.4918 C.ar      1 <0>         0.1748
     20 C16        -5.6521   -9.3599    2.1339 C.ar      1 <0>        -0.1225
     21 C17        -6.4314  -10.2597    2.8336 C.ar      1 <0>        -0.0864
     22 C18        -5.8908  -10.9703    3.8898 C.ar      1 <0>        -0.1220
     23 C19        -4.5689  -10.7825    4.2489 C.ar      1 <0>        -0.1124
     24 C20        -3.7819   -9.8884    3.5494 C.ar      1 <0>        -0.0986
     25 C21        -2.3394   -9.6892    3.9372 C.3       1 <0>        -0.1095
     26 C22        -7.8729  -10.4675    2.4461 C.3       1 <0>        -0.1143
     27 N5          0.0504   -2.2256    3.6029 N.pl3     1 <0>        -0.8215
     28 H1          1.0042    1.8801    0.0026 H         1 <0>         0.0728
     29 H2         -0.5455    1.8639   -0.8728 H         1 <0>         0.0701
     30 H3         -0.5286    1.8543    0.9071 H         1 <0>         0.0671
     31 H4         -0.0068   -0.1233   -2.1358 H         1 <0>         0.1331
     32 H5          0.0260   -2.5603   -2.2053 H         1 <0>         0.1408
     33 H6          0.0244   -0.1448    2.1210 H         1 <0>         0.1247
     34 H7          0.6084   -6.6113    0.1573 H         1 <0>         0.1011
     35 H8          0.6181   -6.6527    1.9367 H         1 <0>         0.0597
     36 H9         -1.5058   -7.0281    3.1290 H         1 <0>         0.0396
     37 H10        -1.8820   -5.3996    2.5153 H         1 <0>         0.0829
     38 H11        -3.9311   -6.7259    3.1701 H         1 <0>         0.0688
     39 H12        -3.9323   -6.2198    1.4600 H         1 <0>         0.0541
     40 H13        -2.7973   -9.7711    0.5191 H         1 <0>         0.0725
     41 H14        -3.1841   -8.2293   -0.2893 H         1 <0>         0.0589
     42 H15        -0.7508   -8.4379   -0.1295 H         1 <0>         0.0838
     43 H16        -0.8593   -8.7646    1.6173 H         1 <0>         0.0405
     44 H17        -6.0751   -8.8048    1.3097 H         1 <0>         0.1203
     45 H18        -6.5027  -11.6733    4.4356 H         1 <0>         0.1203
     46 H19        -4.1500  -11.3384    5.0747 H         1 <0>         0.1205
     47 H20        -2.2693   -8.8950    4.6805 H         1 <0>         0.0635
     48 H21        -1.9446  -10.6148    4.3562 H         1 <0>         0.0599
     49 H22        -1.7608   -9.4137    3.0555 H         1 <0>         0.0703
     50 H23        -7.9388  -11.2646    1.7056 H         1 <0>         0.0696
     51 H24        -8.4503  -10.7428    3.3287 H         1 <0>         0.0657
     52 H25        -8.2721   -9.5453    2.0239 H         1 <0>         0.0648
     53 H26         0.0375   -1.2574    3.6605 H         1 <0>         0.4125
     54 H27         0.0618   -2.7595    4.4127 H         1 <0>         0.4125
@<TRIPOS>BOND
     1    1    2 1
     2    1   28 1
     3    1   29 1
     4    1   30 1
     5    2    7 ar
     6    2    3 ar
     7    3    4 ar
     8    3   31 1
     9    4    5 ar
    10    4   32 1
    11    5   11 ar
    12    5    6 ar
    13    6    7 ar
    14    6    8 ar
    15    7   33 1
    16    8    9 ar
    17    8   27 1
    18    9   10 ar
    19   10   11 ar
    20   10   12 1
    21   12   13 1
    22   12   34 1
    23   12   35 1
    24   13   18 1
    25   13   14 1
    26   14   15 1
    27   14   36 1
    28   14   37 1
    29   15   16 1
    30   15   38 1
    31   15   39 1
    32   16   17 1
    33   16   19 1
    34   17   18 1
    35   17   40 1
    36   17   41 1
    37   18   42 1
    38   18   43 1
    39   19   24 ar
    40   19   20 ar
    41   20   21 ar
    42   20   44 1
    43   21   22 ar
    44   21   26 1
    45   22   23 ar
    46   22   45 1
    47   23   24 ar
    48   23   46 1
    49   24   25 1
    50   25   47 1
    51   25   48 1
    52   25   49 1
    53   26   50 1
    54   26   51 1
    55   26   52 1
    56   27   53 1
    57   27   54 1
@<TRIPOS>MOLECULE
ZINC48767856
   34    35     0     0     0
SMALL
USER_CHARGES

@<TRIPOS>ATOM
      1 C1         -1.3101    1.1777    0.1894 C.3       1 <0>        -0.1160
      2 C2         -0.6295   -0.1630    0.0881 C.ar      1 <0>        -0.1069
      3 C3         -0.6248   -0.8469   -1.1121 C.ar      1 <0>        -0.0673
      4 C4         -0.0003   -2.0774   -1.2059 C.ar      1 <0>        -0.1098
      5 C5          0.6212   -2.6270   -0.0986 C.ar      1 <0>        -0.0713
      6 C6          0.6196   -1.9479    1.1037 C.ar      1 <0>        -0.1109
      7 C7         -0.0017   -0.7095    1.1994 C.ar      1 <0>         0.1783
      8 N1         -0.0004   -0.0164    2.4153 N.am      1 <0>        -0.6780
      9 C8         -0.0702   -0.6949    3.5778 C.2       1 <0>         0.7071
     10 O1         -0.0549   -1.9107    3.5739 O.2       1 <0>        -0.5557
     11 N2         -0.1569   -0.0257    4.7445 N.am      1 <0>        -0.6669
     12 C9         -0.1361   -0.7270    5.9578 C.ar      1 <0>         0.0928
     13 C10        -0.7167   -1.9857    6.0551 C.ar      1 <0>        -0.0440
     14 C11        -0.6707   -2.6415    7.2768 C.ar      1 <0>        -0.1879
     15 C12        -0.0550   -2.0297    8.3506 C.ar      1 <0>         0.1240
     16 N3          0.4883   -0.8327    8.2304 N.ar      1 <0>        -0.5214
     17 C13         0.4728   -0.1746    7.0845 C.ar      1 <0>         0.3018
     18 O2          1.0495    1.0518    7.0048 O.3       1 <0>        -0.3123
     19 C14         1.6563    1.5618    8.1938 C.3       1 <0>         0.0417
     20 I1          0.0039   -3.1115   -3.0279 I         1 <0>        -0.0419
     21 H1         -0.5975    1.9662   -0.0527 H         1 <0>         0.0753
     22 H2         -2.1450    1.2152   -0.5103 H         1 <0>         0.0755
     23 H3         -1.6801    1.3215    1.2046 H         1 <0>         0.0657
     24 H4         -1.1094   -0.4205   -1.9779 H         1 <0>         0.1338
     25 H5          1.1077   -3.5882   -0.1747 H         1 <0>         0.1330
     26 H6          1.1042   -2.3777    1.9679 H         1 <0>         0.1501
     27 H7          0.0508    0.9522    2.4215 H         1 <0>         0.4114
     28 H8         -0.2338    0.9412    4.7444 H         1 <0>         0.4139
     29 H9         -1.1927   -2.4425    5.2000 H         1 <0>         0.1595
     30 H10        -1.1126   -3.6208    7.3870 H         1 <0>         0.1437
     31 H11        -0.0177   -2.5378    9.3029 H         1 <0>         0.1639
     32 H12         0.9051    1.6420    8.9795 H         1 <0>         0.0606
     33 H13         2.4485    0.8861    8.5161 H         1 <0>         0.0603
     34 H14         2.0783    2.5466    7.9927 H         1 <0>         0.0976
@<TRIPOS>BOND
     1    1    2 1
     2    1   21 1
     3    1   22 1
     4    1   23 1
     5    2    7 ar
     6    2    3 ar
     7    3    4 ar
     8    3   24 1
     9    4    5 ar
    10    4   20 1
    11    5    6 ar
    12    5   25 1
    13    6    7 ar
    14    6   26 1
    15    7    8 1
    16    8    9 am
    17    8   27 1
    18    9   10 2
    19    9   11 am
    20   11   12 1
    21   11   28 1
    22   12   17 ar
    23   12   13 ar
    24   13   14 ar
    25   13   29 1
    26   14   15 ar
    27   14   30 1
    28   15   16 ar
    29   15   31 1
    30   16   17 ar
    31   17   18 1
    32   18   19 1
    33   19   32 1
    34   19   33 1
    35   19   34 1
@<TRIPOS>MOLECULE
ZINC58466931
   47    50     0     0     0
SMALL
USER_CHARGES

@<TRIPOS>ATOM
      1 C1          0.2728    0.7221   -2.8028 C.ar      1 <0>        -0.1200
      2 C2          0.4219    0.6453   -1.4303 C.ar      1 <0>        -0.1034
      3 C3          1.5696    0.0999   -0.8884 C.ar      1 <0>        -0.1395
      4 C4          2.5733   -0.3710   -1.7229 C.ar      1 <0>         0.0866
      5 C5          2.4211   -0.2927   -3.0999 C.ar      1 <0>        -0.1211
      6 C6          1.2714    0.2535   -3.6365 C.ar      1 <0>        -0.1025
      7 O1          3.7034   -0.9075   -1.1924 O.3       1 <0>        -0.2594
      8 C7          3.5957   -2.0816   -0.5154 C.ar      1 <0>         0.0933
      9 C8          2.3866   -2.7580   -0.4858 C.ar      1 <0>        -0.1762
     10 C9          2.2788   -3.9517    0.2030 C.ar      1 <0>        -0.0965
     11 C10         3.3752   -4.4743    0.8641 C.ar      1 <0>        -0.1301
     12 C11         4.5845   -3.8056    0.8399 C.ar      1 <0>        -0.0862
     13 C12         4.7021   -2.6105    0.1456 C.ar      1 <0>         0.1419
     14 N1          5.9291   -1.9341    0.1140 N.am      1 <0>        -0.6769
     15 C13         7.0826   -2.6310    0.1017 C.2       1 <0>         0.7070
     16 O2          7.0614   -3.8435    0.1903 O.2       1 <0>        -0.5685
     17 N2          8.2597   -1.9839   -0.0088 N.am      1 <0>        -0.7317
     18 C14         9.5136   -2.7413   -0.0221 C.3       1 <0>         0.2112
     19 H1          9.4228   -3.6047    0.6371 H         1 <0>         0.1043
     20 C15        10.6550   -1.8457    0.4659 C.3       1 <0>        -0.1678
     21 C16        11.9835   -2.5517    0.1658 C.3       1 <0>         0.0666
     22 O3         12.1265   -2.6581   -1.2513 O.3       1 <0>        -0.3154
     23 C17        11.0765   -3.1487   -1.9600 C.ar      1 <0>         0.1389
     24 C18         9.8017   -3.2100   -1.4259 C.ar      1 <0>        -0.1823
     25 C19         8.7603   -3.7127   -2.1874 C.ar      1 <0>        -0.0663
     26 C20         8.9889   -4.1544   -3.4763 C.ar      1 <0>        -0.1568
     27 C21        10.2624   -4.0959   -4.0110 C.ar      1 <0>        -0.0798
     28 C22        11.3028   -3.5966   -3.2573 C.ar      1 <0>        -0.1545
     29 H2         -0.6272    1.1448   -3.2244 H         1 <0>         0.1292
     30 H3         -0.3595    1.0123   -0.7813 H         1 <0>         0.1306
     31 H4          1.6857    0.0405    0.1836 H         1 <0>         0.1298
     32 H5          3.2010   -0.6582   -3.7515 H         1 <0>         0.1318
     33 H6          1.1523    0.3144   -4.7082 H         1 <0>         0.1323
     34 H7          1.5283   -2.3524   -1.0008 H         1 <0>         0.1328
     35 H8          1.3356   -4.4773    0.2253 H         1 <0>         0.1280
     36 H9          3.2861   -5.4071    1.4010 H         1 <0>         0.1300
     37 H10         5.4389   -4.2158    1.3577 H         1 <0>         0.1507
     38 H11         5.9481   -0.9644    0.1010 H         1 <0>         0.4101
     39 H12         8.2766   -1.0166   -0.0794 H         1 <0>         0.4003
     40 H13        10.6208   -0.8896   -0.0565 H         1 <0>         0.0853
     41 H14        10.5602   -1.6820    1.5394 H         1 <0>         0.0942
     42 H15        12.8092   -1.9699    0.5755 H         1 <0>         0.1153
     43 H16        11.9789   -3.5470    0.6102 H         1 <0>         0.0699
     44 H17         7.7646   -3.7601   -1.7717 H         1 <0>         0.1328
     45 H18         8.1728   -4.5451   -4.0660 H         1 <0>         0.1223
     46 H19        10.4420   -4.4427   -5.0180 H         1 <0>         0.1289
     47 H20        12.2970   -3.5512   -3.6767 H         1 <0>         0.1309
@<TRIPOS>BOND
     1    1    6 ar
     2    1    2 ar
     3    1   29 1
     4    2    3 ar
     5    2   30 1
     6    3    4 ar
     7    3   31 1
     8    4    5 ar
     9    4    7 1
    10    5    6 ar
    11    5   32 1
    12    6   33 1
    13    7    8 1
    14    8   13 ar
    15    8    9 ar
    16    9   10 ar
    17    9   34 1
    18   10   11 ar
    19   10   35 1
    20   11   12 ar
    21   11   36 1
    22   12   13 ar
    23   12   37 1
    24   13   14 1
    25   14   15 am
    26   14   38 1
    27   15   16 2
    28   15   17 am
    29   17   18 1
    30   17   39 1
    31   18   19 1
    32   18   24 1
    33   18   20 1
    34   20   21 1
    35   20   40 1
    36   20   41 1
    37   21   22 1
    38   21   42 1
    39   21   43 1
    40   22   23 1
    41   23   28 ar
    42   23   24 ar
    43   24   25 ar
    44   25   26 ar
    45   25   44 1
    46   26   27 ar
    47   26   45 1
    48   27   28 ar
    49   27   46 1
    50   28   47 1
@<TRIPOS>MOLECULE
ZINC02858189
   58    60     0     0     0
SMALL
USER_CHARGES
ethyl 10-[(4-methylpiperazin-1-yl)thiocarbamoylamino]-9-thiabicyclo[6.3.0]undeca-10,12-diene-11-carboxylate
@<TRIPOS>ATOM
      1 C1         -0.1612    5.9485    6.4800 C.3       1 <0>        -0.1538
      2 C2         -1.1319    5.8197    5.3044 C.3       1 <0>         0.0590
      3 O1         -0.9562    4.5248    4.6714 O.3       1 <0>        -0.3512
      4 C3         -1.7424    4.2502    3.6101 C.2       1 <0>         0.5264
      5 O2         -2.5527    5.0716    3.2248 O.2       1 <0>        -0.4948
      6 C4         -1.6203    2.9639    2.9222 C.2       1 <0>        -0.1756
      7 C5         -0.6905    2.7956    1.7978 C.2       1 <0>        -0.0655
      8 C6         -0.7424    1.5836    1.2241 C.2       1 <0>        -0.2110
      9 S1         -1.8918    0.6456    2.1984 S.3       1 <0>         0.3372
     10 C7         -2.3714    1.8747    3.3182 C.2       1 <0>         0.0147
     11 N1         -3.2870    1.7886    4.3541 N.pl3     1 <0>        -0.5453
     12 C8         -3.9336    0.6293    4.5873 C.2       1 <0>         0.5455
     13 S2         -3.6233   -0.7369    3.6033 S.2       1 <0>        -0.4713
     14 N2         -4.8244    0.5455    5.5952 N.pl3     1 <0>        -0.5316
     15 N3         -5.0720    1.6356    6.3803 N.3       1 <0>        -0.3350
     16 C9         -4.6673    1.3859    7.7708 C.3       1 <0>         0.0026
     17 C10        -4.8864    2.6544    8.5987 C.3       1 <0>         0.0059
     18 C11        -6.7061    3.2943    7.1365 C.3       1 <0>         0.0059
     19 C12        -6.4869    2.0258    6.3086 C.3       1 <0>         0.0041
     20 C13        -6.5676    4.2169    9.3714 C.3       1 <0>        -0.0419
     21 C14        -0.0127    1.0858    0.0080 C.3       1 <0>        -0.0581
     22 C15        -0.7835    1.6088   -1.2173 C.3       1 <0>        -0.1156
     23 C16        -0.9343    3.1291   -1.0769 C.3       1 <0>        -0.1305
     24 C17         0.4773    3.6747   -1.0770 C.3       1 <0>        -0.1218
     25 C18         1.1643    3.6168    0.2765 C.3       1 <0>        -0.1265
     26 C19         0.2254    3.9623    1.4255 C.3       1 <0>        -0.0620
     27 H1          0.8627    5.8573    6.1174 H         1 <0>         0.0726
     28 H2         -0.2931    6.9206    6.9552 H         1 <0>         0.0826
     29 H3         -0.3616    5.1596    7.2048 H         1 <0>         0.0627
     30 H4         -0.9315    6.6087    4.5795 H         1 <0>         0.0749
     31 H5         -2.1558    5.9109    5.6670 H         1 <0>         0.0630
     32 H6         -3.4628    2.5626    4.9116 H         1 <0>         0.4177
     33 H7         -5.2898   -0.2889    5.7631 H         1 <0>         0.4305
     34 H8         -5.2662    0.5742    8.1837 H         1 <0>         0.0818
     35 H9         -3.6129    1.1109    7.7990 H         1 <0>         0.1344
     36 H10        -4.2668    3.4588    8.2024 H         1 <0>         0.1427
     37 H11        -4.6142    2.4628    9.6366 H         1 <0>         0.1474
     38 H12        -6.1071    4.1060    6.7236 H         1 <0>         0.1434
     39 H13        -7.7604    3.5695    7.1081 H         1 <0>         0.1478
     40 H14        -6.7592    2.2174    5.2707 H         1 <0>         0.1351
     41 H15        -7.1066    1.2212    6.7046 H         1 <0>         0.0820
     42 H16        -7.6337    4.4434    9.3529 H         1 <0>         0.1265
     43 H17        -6.2588    4.0050   10.3950 H         1 <0>         0.1265
     44 H18        -6.0078    5.0721    8.9927 H         1 <0>         0.1263
     45 H19         0.0021   -0.0041    0.0020 H         1 <0>         0.0769
     46 H20         1.0064    1.4724    0.0004 H         1 <0>         0.1016
     47 H21        -0.2293    1.3768   -2.1267 H         1 <0>         0.0720
     48 H22        -1.7686    1.1439   -1.2578 H         1 <0>         0.0628
     49 H23        -1.4947    3.5322   -1.9204 H         1 <0>         0.0644
     50 H24        -1.4332    3.3738   -0.1392 H         1 <0>         0.0771
     51 H25         1.0699    3.1036   -1.7917 H         1 <0>         0.0647
     52 H26         0.4478    4.7131   -1.4071 H         1 <0>         0.0542
     53 H27         1.5544    2.6107    0.4308 H         1 <0>         0.0800
     54 H28         1.9975    4.3196    0.2790 H         1 <0>         0.0669
     55 H29         0.8197    4.2370    2.2970 H         1 <0>         0.0725
     56 H30        -0.3898    4.8140    1.1352 H         1 <0>         0.0702
     57 N4         -6.3163    3.0229    8.5363 N.4       1 <0>        -0.4015
     58 H31        -6.8783    2.2415    8.8938 H         1 <0>         0.4302
@<TRIPOS>BOND
     1    1    2 1
     2    1   27 1
     3    1   28 1
     4    1   29 1
     5    2    3 1
     6    2   30 1
     7    2   31 1
     8    3    4 1
     9    4    5 2
    10    4    6 1
    11    6   10 2
    12    6    7 1
    13    7   26 1
    14    7    8 2
    15    8    9 1
    16    8   21 1
    17    9   10 1
    18   10   11 1
    19   11   12 1
    20   11   32 1
    21   12   13 2
    22   12   14 1
    23   14   15 1
    24   14   33 1
    25   15   19 1
    26   15   16 1
    27   16   17 1
    28   16   34 1
    29   16   35 1
    30   17   36 1
    31   17   37 1
    32   17   57 1
    33   18   19 1
    34   18   38 1
    35   18   39 1
    36   18   57 1
    37   19   40 1
    38   19   41 1
    39   20   42 1
    40   20   43 1
    41   20   44 1
    42   20   57 1
    43   21   22 1
    44   21   45 1
    45   21   46 1
    46   22   23 1
    47   22   47 1
    48   22   48 1
    49   23   24 1
    50   23   49 1
    51   23   50 1
    52   24   25 1
    53   24   51 1
    54   24   52 1
    55   25   26 1
    56   25   53 1
    57   25   54 1
    58   26   55 1
    59   26   56 1
    60   57   58 1
@<TRIPOS>MOLECULE
ZINC06719045
   50    52     0     0     0
SMALL
USER_CHARGES
ethyl 4-amino-5-methyl-2-[2-(1-piperidyl)ethylsulfanyl]thieno[4,5-e]pyrimidine-6-carboxylate
@<TRIPOS>ATOM
      1 C1          4.6381    7.6662    1.5613 C.3       1 <0>        -0.1547
      2 C2          5.1393    6.2233    1.4733 C.3       1 <0>         0.0622
      3 O1          4.0235    5.3373    1.3628 O.3       1 <0>        -0.3434
      4 C3          4.2948    4.0188    1.2750 C.2       1 <0>         0.5557
      5 O2          5.4481    3.6327    1.2919 O.2       1 <0>        -0.4836
      6 C4          3.2008    3.0523    1.1594 C.2       1 <0>        -0.2165
      7 C5          3.2657    1.6907    1.1646 C.2       1 <0>         0.0180
      8 C6          2.0929    0.9369    1.0417 C.ar      1 <0>        -0.2565
      9 C7          1.9311   -0.4827    1.0238 C.ar      1 <0>         0.5255
     10 N1          0.7196   -0.9938    0.8974 N.ar      1 <0>        -0.6021
     11 C8         -0.3625   -0.2312    0.7856 C.ar      1 <0>         0.3553
     12 N2         -0.2760    1.0934    0.7952 N.ar      1 <0>        -0.4907
     13 C9          0.8945    1.6833    0.9173 C.ar      1 <0>         0.1558
     14 S1          1.4533    3.3664    0.9778 S.3       1 <0>         0.2220
     15 S2         -1.9429   -0.9926    0.6207 S.3       1 <0>         0.0906
     16 C10        -1.4586   -2.7359    0.6704 C.3       1 <0>        -0.1718
     17 C11        -2.7039   -3.6151    0.5403 C.3       1 <0>         0.0097
     18 C12        -1.5020   -5.3850   -0.5925 C.3       1 <0>        -0.0080
     19 C13        -0.9904   -6.8199   -0.4457 C.3       1 <0>        -0.1461
     20 C14        -2.1833   -7.7713   -0.3180 C.3       1 <0>        -0.1398
     21 C15        -3.0357   -7.3503    0.8823 C.3       1 <0>        -0.1472
     22 C16        -3.4880   -5.9001    0.6970 C.3       1 <0>        -0.0017
     23 N3          3.0287   -1.3109    1.1376 N.pl3     1 <0>        -0.8282
     24 C17         4.5973    0.9987    1.3020 C.3       1 <0>        -0.1422
     25 H1          4.0692    7.9085    0.6637 H         1 <0>         0.0691
     26 H2          3.9988    7.7760    2.4373 H         1 <0>         0.0690
     27 H3          5.4891    8.3419    1.6456 H         1 <0>         0.0854
     28 H4          5.7082    5.9809    2.3709 H         1 <0>         0.0735
     29 H5          5.7786    6.1135    0.5973 H         1 <0>         0.0736
     30 H6         -0.7770   -2.9472   -0.1536 H         1 <0>         0.1191
     31 H7         -0.9613   -2.9480    1.6168 H         1 <0>         0.1188
     32 H8         -3.3855   -3.4038    1.3643 H         1 <0>         0.1408
     33 H9         -3.2013   -3.4030   -0.4061 H         1 <0>         0.1423
     34 H10        -2.1130   -5.3075   -1.4918 H         1 <0>         0.1325
     35 H11        -0.6549   -4.7035   -0.6693 H         1 <0>         0.1282
     36 H12        -0.3681   -6.8949    0.4460 H         1 <0>         0.0871
     37 H13        -0.4027   -7.0889   -1.3233 H         1 <0>         0.1118
     38 H14        -1.8231   -8.7893   -0.1697 H         1 <0>         0.0941
     39 H15        -2.7851   -7.7264   -1.2257 H         1 <0>         0.0824
     40 H16        -2.4455   -7.4337    1.7949 H         1 <0>         0.0876
     41 H17        -3.9097   -7.9979    0.9531 H         1 <0>         0.1132
     42 H18        -4.0833   -5.5926    1.5568 H         1 <0>         0.1304
     43 H19        -4.0896   -5.8203   -0.2084 H         1 <0>         0.1321
     44 H20         2.9280   -2.2012    1.5093 H         1 <0>         0.4106
     45 H21         3.9010   -1.0029    0.8460 H         1 <0>         0.4228
     46 H22         4.9726    0.7335    0.3136 H         1 <0>         0.0890
     47 H23         5.3052    1.6670    1.7922 H         1 <0>         0.1076
     48 H24         4.4772    0.0950    1.8995 H         1 <0>         0.0788
     49 N4         -2.2939   -5.0331    0.6052 N.4       1 <0>        -0.3899
     50 H25        -1.7145   -5.1747    1.4409 H         1 <0>         0.4274
@<TRIPOS>BOND
     1    1    2 1
     2    1   25 1
     3    1   26 1
     4    1   27 1
     5    2    3 1
     6    2   28 1
     7    2   29 1
     8    3    4 1
     9    4    5 2
    10    4    6 1
    11    6   14 1
    12    6    7 2
    13    7    8 1
    14    7   24 1
    15    8   13 ar
    16    8    9 ar
    17    9   10 ar
    18    9   23 1
    19   10   11 ar
    20   11   12 ar
    21   11   15 1
    22   12   13 ar
    23   13   14 1
    24   15   16 1
    25   16   17 1
    26   16   30 1
    27   16   31 1
    28   17   32 1
    29   17   33 1
    30   17   49 1
    31   18   19 1
    32   18   34 1
    33   18   35 1
    34   18   49 1
    35   19   20 1
    36   19   36 1
    37   19   37 1
    38   20   21 1
    39   20   38 1
    40   20   39 1
    41   21   22 1
    42   21   40 1
    43   21   41 1
    44   22   42 1
    45   22   43 1
    46   22   49 1
    47   23   44 1
    48   23   45 1
    49   24   46 1
    50   24   47 1
    51   24   48 1
    52   49   50 1
@<TRIPOS>MOLECULE
ZINC37181267
   55    56     0     0     0
SMALL
USER_CHARGES

@<TRIPOS>ATOM
      1 C1          0.4405    1.7262   -0.0810 C.3       1 <0>        -0.1623
      2 C2          0.0449    0.2482   -0.0780 C.3       1 <0>         0.1861
      3 H1         -1.0390    0.1621   -0.1552 H         1 <0>         0.1052
      4 C3          0.5098   -0.3937    1.2038 C.ar      1 <0>        -0.1076
      5 C4          1.8303   -0.7770    1.3455 C.ar      1 <0>        -0.1181
      6 C5          2.2567   -1.3658    2.5212 C.ar      1 <0>        -0.1129
      7 C6          1.3627   -1.5709    3.5554 C.ar      1 <0>        -0.1092
      8 C7          0.0424   -1.1867    3.4141 C.ar      1 <0>        -0.1101
      9 C8         -0.3831   -0.5939    2.2399 C.ar      1 <0>        -0.1037
     10 N1          0.6708   -0.4272   -1.2174 N.am      1 <0>        -0.6960
     11 C9          0.0743   -0.4031   -2.4257 C.2       1 <0>         0.5076
     12 O1         -0.9806    0.1776   -2.5698 O.2       1 <0>        -0.5178
     13 C10         0.7182   -1.0979   -3.5978 C.3       1 <0>         0.0028
     14 H2          1.0425   -2.0940   -3.2964 H         1 <0>         0.1638
     15 C11         1.9281   -0.2884   -4.0687 C.3       1 <0>        -0.1847
     16 N2         -0.2528   -1.2100   -4.6944 N.4       1 <0>        -0.3575
     17 C12        -1.3500   -2.0982   -4.2879 C.3       1 <0>        -0.0641
     18 C13         0.4113   -1.7640   -5.8818 C.3       1 <0>        -0.0353
     19 C14        -0.5513   -1.7648   -7.0413 C.2       1 <0>         0.5012
     20 O2         -1.6797   -1.3451   -6.8930 O.2       1 <0>        -0.5065
     21 N3         -0.1585   -2.2317   -8.2430 N.am      1 <0>        -0.6315
     22 C15        -1.0823   -2.3321   -9.2918 C.ar      1 <0>         0.1006
     23 C16        -2.1069   -1.4040   -9.4071 C.ar      1 <0>        -0.0715
     24 C17        -3.0171   -1.5049  -10.4433 C.ar      1 <0>        -0.0568
     25 C18        -2.9085   -2.5305  -11.3660 C.ar      1 <0>        -0.0650
     26 C19        -1.8900   -3.4587  -11.2563 C.ar      1 <0>        -0.1772
     27 C20        -0.9707   -3.3605  -10.2245 C.ar      1 <0>         0.1235
     28 O3          0.0352   -4.2697  -10.1192 O.3       1 <0>        -0.3186
     29 C21         0.0877   -5.2969  -11.1112 C.3       1 <0>         0.0238
     30 Cl1        -4.2988   -0.3429  -10.5866 Cl        1 <0>        -0.0493
     31 H3          1.5244    1.8123   -0.0037 H         1 <0>         0.0644
     32 H4          0.1043    2.1905   -1.0080 H         1 <0>         0.0661
     33 H5         -0.0252    2.2287    0.7668 H         1 <0>         0.0791
     34 H6          2.5288   -0.6168    0.5374 H         1 <0>         0.1176
     35 H7          3.2883   -1.6660    2.6316 H         1 <0>         0.1277
     36 H8          1.6957   -2.0315    4.4737 H         1 <0>         0.1285
     37 H9         -0.6562   -1.3471    4.2220 H         1 <0>         0.1298
     38 H10        -1.4138   -0.2904    2.1309 H         1 <0>         0.1268
     39 H11         1.5145   -0.8916   -1.1022 H         1 <0>         0.4085
     40 H12         2.3938   -0.7909   -4.9165 H         1 <0>         0.0989
     41 H13         1.6038    0.7076   -4.3702 H         1 <0>         0.0931
     42 H14         2.6486   -0.2052   -3.2551 H         1 <0>         0.1145
     43 H15        -2.0052   -2.2797   -5.1400 H         1 <0>         0.1436
     44 H16        -0.9399   -3.0451   -3.9368 H         1 <0>         0.1190
     45 H17        -1.9192   -1.6289   -3.4855 H         1 <0>         0.1351
     46 H18         1.2793   -1.1534   -6.1307 H         1 <0>         0.1676
     47 H19         0.7324   -2.7850   -5.6755 H         1 <0>         0.1671
     48 H20         0.7638   -2.4983   -8.3819 H         1 <0>         0.4248
     49 H21        -2.1939   -0.6032   -8.6877 H         1 <0>         0.1588
     50 H22        -3.6215   -2.6061  -12.1737 H         1 <0>         0.1458
     51 H23        -1.8082   -4.2582  -11.9779 H         1 <0>         0.1494
     52 H24        -0.8350   -5.8765  -11.0832 H         1 <0>         0.0629
     53 H25         0.2032   -4.8451  -12.0964 H         1 <0>         0.0639
     54 H26         0.9349   -5.9527  -10.9107 H         1 <0>         0.1087
     55 H27        -0.6224   -0.2965   -4.9111 H         1 <0>         0.4391
@<TRIPOS>BOND
     1    1    2 1
     2    1   31 1
     3    1   32 1
     4    1   33 1
     5    2    3 1
     6    2    4 1
     7    2   10 1
     8    4    9 ar
     9    4    5 ar
    10    5    6 ar
    11    5   34 1
    12    6    7 ar
    13    6   35 1
    14    7    8 ar
    15    7   36 1
    16    8    9 ar
    17    8   37 1
    18    9   38 1
    19   10   11 am
    20   10   39 1
    21   11   12 2
    22   11   13 1
    23   13   14 1
    24   13   15 1
    25   13   16 1
    26   15   40 1
    27   15   41 1
    28   15   42 1
    29   16   17 1
    30   16   18 1
    31   16   55 1
    32   17   43 1
    33   17   44 1
    34   17   45 1
    35   18   19 1
    36   18   46 1
    37   18   47 1
    38   19   20 2
    39   19   21 am
    40   21   22 1
    41   21   48 1
    42   22   27 ar
    43   22   23 ar
    44   23   24 ar
    45   23   49 1
    46   24   25 ar
    47   24   30 1
    48   25   26 ar
    49   25   50 1
    50   26   27 ar
    51   26   51 1
    52   27   28 1
    53   28   29 1
    54   29   52 1
    55   29   53 1
    56   29   54 1
@<TRIPOS>MOLECULE
ZINC59037228
   60    62     0     0     0
SMALL
USER_CHARGES

@<TRIPOS>ATOM
      1 C1         -0.9866    0.9501    1.8515 C.3       1 <0>        -0.1534
      2 C2         -1.5875    0.1292    0.7088 C.3       1 <0>         0.0742
      3 C3         -2.2765    1.0665   -0.2851 C.3       1 <0>        -0.1785
      4 O1         -0.5488   -0.5913    0.0425 O.3       1 <0>        -0.3074
      5 C4         -0.8732   -1.8066   -0.4721 C.ar      1 <0>         0.1504
      6 C5          0.1111   -2.6110   -1.0279 C.ar      1 <0>        -0.1568
      7 C6         -0.2211   -3.8461   -1.5499 C.ar      1 <0>        -0.0566
      8 C7         -1.5333   -4.2807   -1.5191 C.ar      1 <0>        -0.1612
      9 C8         -2.5162   -3.4807   -0.9661 C.ar      1 <0>        -0.0548
     10 C9         -2.1882   -2.2474   -0.4373 C.ar      1 <0>        -0.2148
     11 C10        -1.8930   -5.6283   -2.0897 C.3       1 <0>         0.1850
     12 N1         -1.7881   -6.6463   -1.0414 N.am      1 <0>        -0.7335
     13 C11        -2.0649   -7.9349   -1.3232 C.2       1 <0>         0.7076
     14 O2         -2.4016   -8.2525   -2.4475 O.2       1 <0>        -0.5695
     15 N2         -1.9684   -8.8713   -0.3587 N.am      1 <0>        -0.7620
     16 C12        -2.2693  -10.2720   -0.6651 C.3       1 <0>         0.1161
     17 C13        -2.2049  -11.1002    0.6198 C.3       1 <0>         0.1240
     18 H1         -2.3275  -12.1560    0.3780 H         1 <0>         0.1763
     19 C14        -3.3067  -10.6672    1.5523 C.2       1 <0>        -0.1054
     20 C15        -4.4790  -11.3015    1.7330 C.2       1 <0>        -0.1283
     21 C16        -5.2054  -10.5552    2.6892 C.2       1 <0>        -0.2105
     22 C17        -4.4335   -9.5095    3.0356 C.2       1 <0>         0.0086
     23 O3         -3.2823   -9.5856    2.3482 O.3       1 <0>        -0.1832
     24 N3         -0.9039  -10.8947    1.2702 N.4       1 <0>        -0.3851
     25 C18         0.1709  -11.2150    0.3232 C.3       1 <0>        -0.0177
     26 C19         1.5277  -10.9254    0.9688 C.3       1 <0>        -0.1432
     27 C20         1.6816  -11.7839    2.2275 C.3       1 <0>        -0.1392
     28 C21         0.5143  -11.4957    3.1760 C.3       1 <0>        -0.1442
     29 C22        -0.8049  -11.7642    2.4486 C.3       1 <0>        -0.0065
     30 H2         -1.7789    1.4998    2.3598 H         1 <0>         0.0797
     31 H3         -0.4958    0.2824    2.5596 H         1 <0>         0.0642
     32 H4         -0.2570    1.6531    1.4494 H         1 <0>         0.0700
     33 H5         -2.3171   -0.5737    1.1109 H         1 <0>         0.0764
     34 H6         -1.5469    1.7695   -0.6872 H         1 <0>         0.0705
     35 H7         -2.7046    0.4817   -1.0992 H         1 <0>         0.0615
     36 H8         -3.0687    1.6161    0.2232 H         1 <0>         0.0758
     37 H9          1.1361   -2.2717   -1.0528 H         1 <0>         0.1346
     38 H10         0.5447   -4.4726   -1.9827 H         1 <0>         0.1305
     39 H11        -3.5405   -3.8223   -0.9436 H         1 <0>         0.1261
     40 H12        -2.9555   -1.6248   -0.0015 H         1 <0>         0.1339
     41 H13        -2.9145   -5.6014   -2.4691 H         1 <0>         0.0783
     42 H14        -1.2097   -5.8726   -2.9030 H         1 <0>         0.0795
     43 H15        -1.5195   -6.3929   -0.1444 H         1 <0>         0.3977
     44 H16        -1.6998   -8.6179    0.5382 H         1 <0>         0.3883
     45 H17        -3.2688  -10.3436   -1.0938 H         1 <0>         0.1193
     46 H18        -1.5394  -10.6525   -1.3796 H         1 <0>         0.1041
     47 H19        -4.8034  -12.2068    1.2415 H         1 <0>         0.1628
     48 H20        -6.1911  -10.7812    3.0685 H         1 <0>         0.1639
     49 H21        -4.6937   -8.7412    3.7487 H         1 <0>         0.2178
     50 H22         0.1149  -12.2698    0.0539 H         1 <0>         0.1360
     51 H23         0.0581  -10.6056   -0.5734 H         1 <0>         0.1354
     52 H24         2.3244  -11.1655    0.2647 H         1 <0>         0.1157
     53 H25         1.5849   -9.8708    1.2383 H         1 <0>         0.0867
     54 H26         1.6758  -12.8386    1.9523 H         1 <0>         0.0840
     55 H27         2.6219  -11.5403    2.7222 H         1 <0>         0.0957
     56 H28         0.5867  -12.1435    4.0496 H         1 <0>         0.1143
     57 H29         0.5505  -10.4530    3.4913 H         1 <0>         0.0866
     58 H30        -1.6381  -11.5602    3.1212 H         1 <0>         0.1287
     59 H31        -0.8401  -12.8072    2.1340 H         1 <0>         0.1331
     60 H32        -0.8208   -9.9309    1.5567 H         1 <0>         0.4183
@<TRIPOS>BOND
     1    1    2 1
     2    1   30 1
     3    1   31 1
     4    1   32 1
     5    2    3 1
     6    2    4 1
     7    2   33 1
     8    3   34 1
     9    3   35 1
    10    3   36 1
    11    4    5 1
    12    5   10 ar
    13    5    6 ar
    14    6    7 ar
    15    6   37 1
    16    7    8 ar
    17    7   38 1
    18    8    9 ar
    19    8   11 1
    20    9   10 ar
    21    9   39 1
    22   10   40 1
    23   11   12 1
    24   11   41 1
    25   11   42 1
    26   12   13 am
    27   12   43 1
    28   13   14 2
    29   13   15 am
    30   15   16 1
    31   15   44 1
    32   16   17 1
    33   16   45 1
    34   16   46 1
    35   17   18 1
    36   17   19 1
    37   17   24 1
    38   19   23 1
    39   19   20 2
    40   20   21 1
    41   20   47 1
    42   21   22 2
    43   21   48 1
    44   22   23 1
    45   22   49 1
    46   24   29 1
    47   24   25 1
    48   24   60 1
    49   25   26 1
    50   25   50 1
    51   25   51 1
    52   26   27 1
    53   26   52 1
    54   26   53 1
    55   27   28 1
    56   27   54 1
    57   27   55 1
    58   28   29 1
    59   28   56 1
    60   28   57 1
    61   29   58 1
    62   29   59 1
@<TRIPOS>MOLECULE
ZINC50331599
   52    54     0     0     0
SMALL
USER_CHARGES

@<TRIPOS>ATOM
      1 C1          0.4772    0.9619   -0.9845 C.ar      1 <0>        -0.1081
      2 C2          1.6002    1.7630   -0.9340 C.ar      1 <0>        -0.1021
      3 C3          2.5709    1.5379    0.0335 C.ar      1 <0>         0.1568
      4 C4          2.4116    0.5066    0.9501 C.ar      1 <0>        -0.1299
      5 C5          1.2885   -0.2944    0.8995 C.ar      1 <0>        -0.0906
      6 C6          0.3180   -0.0692   -0.0679 C.ar      1 <0>         0.0957
      7 N1         -0.8217   -0.8821   -0.1192 N.am      1 <0>        -0.6402
      8 C7         -0.7273   -2.1942    0.1741 C.2       1 <0>         0.4986
      9 O1          0.3256   -2.6546    0.5621 O.2       1 <0>        -0.5100
     10 C8         -1.9299   -3.0891    0.0200 C.3       1 <0>        -0.0372
     11 N2         -1.5706   -4.4619    0.3997 N.4       1 <0>        -0.3519
     12 C9         -0.5025   -4.9378   -0.5008 C.3       1 <0>        -0.0116
     13 C10         0.2673   -6.0229    0.2097 C.3       1 <0>        -0.1405
     14 C11        -0.2442   -7.4229   -0.1782 C.3       1 <0>        -0.1322
     15 C12        -1.7828   -7.4641   -0.2726 C.3       1 <0>        -0.1392
     16 C13        -2.4473   -6.6939    0.8397 C.3       1 <0>        -0.1338
     17 C14        -2.7204   -5.2527    0.3610 C.3       1 <0>        -0.0340
     18 N3          3.7100    2.3499    0.0844 N.am      1 <0>        -0.6738
     19 C15         3.6154    3.6624   -0.2069 C.2       1 <0>         0.5573
     20 O2          2.5578    4.1256   -0.5939 O.2       1 <0>        -0.5286
     21 C16         4.7466    4.5032   -0.0628 C.2       1 <0>        -0.2139
     22 C17         4.6517    5.8203   -0.3551 C.2       1 <0>         0.0355
     23 C18         5.8231    6.6910   -0.2060 C.2       1 <0>         0.0357
     24 C19         5.7744    8.0434   -0.4869 C.2       1 <0>        -0.2738
     25 S1          7.3451    8.5370   -0.1529 S.3       1 <0>         0.2745
     26 C20         8.0002    7.0654    0.3184 C.2       1 <0>        -0.0230
     27 N4          7.0049    6.2279    0.2160 N.2       1 <0>        -0.4800
     28 H1         -0.2798    1.1398   -1.7340 H         1 <0>         0.1331
     29 H2          1.7241    2.5647   -1.6471 H         1 <0>         0.1491
     30 H3          3.1665    0.3312    1.7023 H         1 <0>         0.1348
     31 H4          1.1648   -1.0965    1.6120 H         1 <0>         0.1405
     32 H5         -1.6788   -0.5007   -0.3657 H         1 <0>         0.4197
     33 H6         -2.7333   -2.7324    0.6645 H         1 <0>         0.1631
     34 H7         -2.2631   -3.0745   -1.0178 H         1 <0>         0.1630
     35 H8         -0.9429   -5.3377   -1.4141 H         1 <0>         0.1290
     36 H9          0.1665   -4.1128   -0.7455 H         1 <0>         0.1456
     37 H10         1.3218   -5.9430   -0.0543 H         1 <0>         0.1074
     38 H11         0.1596   -5.8898    1.2861 H         1 <0>         0.0816
     39 H12         0.1785   -7.7006   -1.1437 H         1 <0>         0.0794
     40 H13         0.0850   -8.1418    0.5721 H         1 <0>         0.0812
     41 H14        -2.0893   -7.0391   -1.2284 H         1 <0>         0.0689
     42 H15        -2.1115   -8.5025   -0.2284 H         1 <0>         0.0865
     43 H16        -3.3891   -7.1748    1.1042 H         1 <0>         0.1113
     44 H17        -1.7913   -6.6710    1.7098 H         1 <0>         0.0886
     45 H18        -3.4803   -4.8046    1.0012 H         1 <0>         0.1318
     46 H19        -3.0947   -5.2840   -0.6622 H         1 <0>         0.1295
     47 H20         4.5673    1.9680    0.3294 H         1 <0>         0.4165
     48 H21         5.6846    4.0924    0.2804 H         1 <0>         0.1407
     49 H22         3.7137    6.2311   -0.6984 H         1 <0>         0.1478
     50 H23         4.9388    8.6331   -0.8338 H         1 <0>         0.2035
     51 H24         9.0115    6.8598    0.6370 H         1 <0>         0.2221
     52 H25        -1.2154   -4.4533    1.3440 H         1 <0>         0.4254
@<TRIPOS>BOND
     1    1    6 ar
     2    1    2 ar
     3    1   28 1
     4    2    3 ar
     5    2   29 1
     6    3    4 ar
     7    3   18 1
     8    4    5 ar
     9    4   30 1
    10    5    6 ar
    11    5   31 1
    12    6    7 1
    13    7    8 am
    14    7   32 1
    15    8    9 2
    16    8   10 1
    17   10   11 1
    18   10   33 1
    19   10   34 1
    20   11   17 1
    21   11   12 1
    22   11   52 1
    23   12   13 1
    24   12   35 1
    25   12   36 1
    26   13   14 1
    27   13   37 1
    28   13   38 1
    29   14   15 1
    30   14   39 1
    31   14   40 1
    32   15   16 1
    33   15   41 1
    34   15   42 1
    35   16   17 1
    36   16   43 1
    37   16   44 1
    38   17   45 1
    39   17   46 1
    40   18   19 am
    41   18   47 1
    42   19   20 2
    43   19   21 1
    44   21   22 2
    45   21   48 1
    46   22   23 1
    47   22   49 1
    48   23   27 1
    49   23   24 2
    50   24   25 1
    51   24   50 1
    52   25   26 1
    53   26   27 2
    54   26   51 1
@<TRIPOS>MOLECULE
ZINC04462457
   59    62     0     0     0
SMALL
USER_CHARGES
4-(4-methylbenzoyl)-N,N-bis[4-(4-methylbenzoyl)-1-thia-4,8-diazaspiro[4.5]dec-9-yl]-1-thia-4,8-diazaspiro[4.5]decane-8-carboxamide
@<TRIPOS>ATOM
      1 C1          1.9120    2.7486    2.4486 C.3       1 <0>        -0.1230
      2 C2          1.8309    1.3701    1.8450 C.ar      1 <0>        -0.0576
      3 C3          0.7981    0.5215    2.2022 C.ar      1 <0>        -0.1245
      4 C4          0.7178   -0.7415    1.6530 C.ar      1 <0>        -0.0568
      5 C5          1.6814   -1.1625    0.7352 C.ar      1 <0>        -0.1365
      6 C6          2.7207   -0.3015    0.3792 C.ar      1 <0>        -0.1151
      7 C7          2.7894    0.9589    0.9358 C.ar      1 <0>        -0.1262
      8 C8          1.6018   -2.5149    0.1430 C.2       1 <0>         0.5359
      9 O1          0.5247   -3.0669    0.0311 O.2       1 <0>        -0.4658
     10 N1          2.7236   -3.1356   -0.2726 N.am      1 <0>        -0.6040
     11 C9          4.0029   -2.4356   -0.3822 C.3       1 <0>         0.0641
     12 C10         5.1898   -3.4091   -0.0995 C.3       1 <0>        -0.0747
     13 S1          4.5144   -4.9088   -0.9470 S.3       1 <0>        -0.2778
     14 C11         2.7352   -4.5544   -0.6491 C.3       1 <0>         0.2314
     15 C12         1.9472   -4.7898   -1.9296 C.3       1 <0>        -0.1241
     16 C13         0.4669   -4.4750   -1.6837 C.3       1 <0>         0.0999
     17 N2          0.0094   -5.2426   -0.5173 N.am      1 <0>        -0.5950
     18 C14         0.7465   -5.1171    0.7475 C.3       1 <0>         0.1075
     19 C15         2.2251   -5.4284    0.4876 C.3       1 <0>        -0.1271
     20 C16        -1.0675   -6.0481   -0.6062 C.2       1 <0>         0.7074
     21 O2         -1.4964   -6.6016    0.3878 O.2       1 <0>        -0.5736
     22 N3         -1.6689   -6.2402   -1.7970 N.am      1 <0>        -0.6813
     23 C17        -2.6889   -7.1904   -1.9205 C.ar      1 <0>         0.1628
     24 C18        -3.3566   -7.6454   -0.7909 C.ar      1 <0>        -0.1428
     25 C19        -4.3630   -8.5827   -0.9162 C.ar      1 <0>        -0.1035
     26 C20        -4.7062   -9.0683   -2.1649 C.ar      1 <0>        -0.1095
     27 C21        -4.0434   -8.6173   -3.2913 C.ar      1 <0>        -0.0990
     28 C22        -3.0393   -7.6759   -3.1732 C.ar      1 <0>        -0.1246
     29 C23        -2.3213   -7.1807   -4.4021 C.3       1 <0>        -0.1086
     30 C24        -5.8053  -10.0907   -2.2980 C.3       1 <0>        -0.1112
     31 H1          2.5024    2.7102    3.3641 H         1 <0>         0.0766
     32 H2          2.3846    3.4284    1.7397 H         1 <0>         0.0707
     33 H3          0.9076    3.1042    2.6786 H         1 <0>         0.0710
     34 H4          0.0507    0.8502    2.9091 H         1 <0>         0.1310
     35 H5         -0.0887   -1.4030    1.9329 H         1 <0>         0.1343
     36 H6          3.4696   -0.6215   -0.3301 H         1 <0>         0.1519
     37 H7          3.5928    1.6262    0.6610 H         1 <0>         0.1301
     38 H8          4.1024   -2.0255   -1.3872 H         1 <0>         0.0880
     39 H9          4.0285   -1.6200    0.3404 H         1 <0>         0.1269
     40 H10         5.3278   -3.5796    0.9682 H         1 <0>         0.1035
     41 H11         6.1103   -3.0631   -0.5696 H         1 <0>         0.1270
     42 H12         2.3308   -4.1408   -2.7168 H         1 <0>         0.0884
     43 H13         2.0515   -5.8311   -2.2342 H         1 <0>         0.0828
     44 H14        -0.1173   -4.7576   -2.5594 H         1 <0>         0.0604
     45 H15         0.3445   -3.4092   -1.4909 H         1 <0>         0.1239
     46 H16         0.3466   -5.8231    1.4754 H         1 <0>         0.0840
     47 H17         0.6484   -4.1006    1.1286 H         1 <0>         0.1229
     48 H18         2.3329   -6.4783    0.2152 H         1 <0>         0.0854
     49 H19         2.8031   -5.2258    1.3893 H         1 <0>         0.0843
     50 H20        -1.3947   -5.7199   -2.5683 H         1 <0>         0.4035
     51 H21        -3.0894   -7.2663    0.1844 H         1 <0>         0.1702
     52 H22        -4.8829   -8.9366   -0.0382 H         1 <0>         0.1223
     53 H23        -4.3136   -8.9984   -4.2650 H         1 <0>         0.1230
     54 H24        -1.4577   -7.8159   -4.5991 H         1 <0>         0.0700
     55 H25        -2.9981   -7.2126   -5.2560 H         1 <0>         0.0712
     56 H26        -1.9888   -6.1554   -4.2402 H         1 <0>         0.0548
     57 H27        -6.7598   -9.5824   -2.4341 H         1 <0>         0.0675
     58 H28        -5.6066  -10.7275   -3.1600 H         1 <0>         0.0634
     59 H29        -5.8443  -10.7017   -1.3962 H         1 <0>         0.0644
@<TRIPOS>BOND
     1    1    2 1
     2    1   31 1
     3    1   32 1
     4    1   33 1
     5    2    7 ar
     6    2    3 ar
     7    3    4 ar
     8    3   34 1
     9    4    5 ar
    10    4   35 1
    11    5    6 ar
    12    5    8 1
    13    6    7 ar
    14    6   36 1
    15    7   37 1
    16    8    9 2
    17    8   10 am
    18   10   14 1
    19   10   11 1
    20   11   12 1
    21   11   38 1
    22   11   39 1
    23   12   13 1
    24   12   40 1
    25   12   41 1
    26   13   14 1
    27   14   19 1
    28   14   15 1
    29   15   16 1
    30   15   42 1
    31   15   43 1
    32   16   17 1
    33   16   44 1
    34   16   45 1
    35   17   18 1
    36   17   20 am
    37   18   19 1
    38   18   46 1
    39   18   47 1
    40   19   48 1
    41   19   49 1
    42   20   21 2
    43   20   22 am
    44   22   23 1
    45   22   50 1
    46   23   28 ar
    47   23   24 ar
    48   24   25 ar
    49   24   51 1
    50   25   26 ar
    51   25   52 1
    52   26   27 ar
    53   26   30 1
    54   27   28 ar
    55   27   53 1
    56   28   29 1
    57   29   54 1
    58   29   55 1
    59   29   56 1
    60   30   57 1
    61   30   58 1
    62   30   59 1
@<TRIPOS>MOLECULE
ZINC09304796
   47    50     0     0     0
SMALL
USER_CHARGES
chloro-[4-(2-hydroxyethyl)phenyl]-dimethyl-BLAHone
@<TRIPOS>ATOM
      1 C1         -0.0900    4.3225    0.0246 C.3       1 <0>        -0.1308
      2 C2          1.1957    3.5366    0.0090 C.2       1 <0>         0.0291
      3 C3          2.4025    4.1622    0.0014 C.2       1 <0>        -0.2221
      4 C4          3.5839    3.3956   -0.0126 C.2       1 <0>         0.5097
      5 O1          4.6549    3.9757   -0.0182 O.2       1 <0>        -0.4570
      6 O2          3.5806    2.0588   -0.0197 O.3       1 <0>        -0.2568
      7 C5          2.4144    1.3827   -0.0134 C.ar      1 <0>         0.1861
      8 C6          1.1886    2.0716    0.0018 C.ar      1 <0>        -0.1638
      9 C7         -0.0164    1.3603    0.0095 C.ar      1 <0>        -0.0174
     10 C8          0.0021   -0.0041    0.0020 C.ar      1 <0>        -0.0806
     11 C9          1.2150   -0.6970   -0.0142 C.ar      1 <0>         0.2000
     12 C10         2.4139   -0.0075   -0.0224 C.ar      1 <0>        -0.1720
     13 C11         3.7294   -0.7434   -0.0437 C.3       1 <0>         0.1054
     14 N1          3.5192   -2.1409    0.3598 N.pl3     1 <0>        -0.5168
     15 C12         2.4004   -2.7244   -0.3988 C.3       1 <0>         0.2269
     16 O3          1.1953   -2.0561   -0.0190 O.3       1 <0>        -0.2797
     17 C13         4.6847   -2.8916    0.1898 C.ar      1 <0>         0.0770
     18 C14         5.3559   -3.3954    1.2968 C.ar      1 <0>        -0.0801
     19 C15         6.5054   -4.1413    1.1249 C.ar      1 <0>        -0.1061
     20 C16         6.9942   -4.3780   -0.1469 C.ar      1 <0>        -0.0764
     21 C17         6.3314   -3.8736   -1.2507 C.ar      1 <0>        -0.1017
     22 C18         5.1785   -3.1313   -1.0863 C.ar      1 <0>        -0.1437
     23 C19         8.2523   -5.1872   -0.3302 C.3       1 <0>        -0.0832
     24 C20         9.4652   -4.2548   -0.3138 C.3       1 <0>         0.0806
     25 O4         10.6582   -5.0221   -0.4876 O.3       1 <0>        -0.5755
     26 Cl1        -1.4934   -0.8857    0.0121 Cl        1 <0>        -0.0357
     27 C21         2.4758    5.6674    0.0086 C.3       1 <0>        -0.0972
     28 H1         -0.3906    4.5070    1.0560 H         1 <0>         0.0943
     29 H2          0.0594    5.2739   -0.4860 H         1 <0>         0.0898
     30 H3         -0.8689    3.7552   -0.4849 H         1 <0>         0.0811
     31 H4         -0.9579    1.8893    0.0168 H         1 <0>         0.1594
     32 H5          4.4233   -0.2662    0.6484 H         1 <0>         0.1101
     33 H6          4.1445   -0.7150   -1.0511 H         1 <0>         0.0670
     34 H7          2.3176   -3.7868   -0.1698 H         1 <0>         0.1340
     35 H8          2.5727   -2.5898   -1.4667 H         1 <0>         0.0556
     36 H9          4.9772   -3.2071    2.2905 H         1 <0>         0.1343
     37 H10         7.0255   -4.5367    1.9849 H         1 <0>         0.1307
     38 H11         6.7160   -4.0601   -2.2426 H         1 <0>         0.1268
     39 H12         4.6615   -2.7374   -1.9488 H         1 <0>         0.1217
     40 H13         8.3397   -5.9114    0.4797 H         1 <0>         0.0828
     41 H14         8.2106   -5.7124   -1.2844 H         1 <0>         0.0816
     42 H15         9.3778   -3.5305   -1.1236 H         1 <0>         0.0473
     43 H16         9.5069   -3.7296    0.6405 H         1 <0>         0.0483
     44 H17        11.4686   -4.4946   -0.4874 H         1 <0>         0.3835
     45 H18         2.5027    6.0249    1.0379 H         1 <0>         0.0775
     46 H19         3.3778    5.9897   -0.5117 H         1 <0>         0.0784
     47 H20         1.6000    6.0762   -0.4953 H         1 <0>         0.0778
@<TRIPOS>BOND
     1    1    2 1
     2    1   28 1
     3    1   29 1
     4    1   30 1
     5    2    8 1
     6    2    3 2
     7    3    4 1
     8    3   27 1
     9    4    5 2
    10    4    6 1
    11    6    7 1
    12    7   12 ar
    13    7    8 ar
    14    8    9 ar
    15    9   10 ar
    16    9   31 1
    17   10   11 ar
    18   10   26 1
    19   11   16 1
    20   11   12 ar
    21   12   13 1
    22   13   14 1
    23   13   32 1
    24   13   33 1
    25   14   15 1
    26   14   17 1
    27   15   16 1
    28   15   34 1
    29   15   35 1
    30   17   22 ar
    31   17   18 ar
    32   18   19 ar
    33   18   36 1
    34   19   20 ar
    35   19   37 1
    36   20   21 ar
    37   20   23 1
    38   21   22 ar
    39   21   38 1
    40   22   39 1
    41   23   24 1
    42   23   40 1
    43   23   41 1
    44   24   25 1
    45   24   42 1
    46   24   43 1
    47   25   44 1
    48   27   45 1
    49   27   46 1
    50   27   47 1
@<TRIPOS>MOLECULE
ZINC18140649
   34    37     0     0     0
SMALL
USER_CHARGES

@<TRIPOS>ATOM
      1 C1         -0.0169    1.3925    0.0097 C.ar      1 <0>        -0.0770
      2 C2          1.1696    2.0952    0.0021 C.ar      1 <0>        -0.0952
      3 C3          2.3781    1.4191   -0.0135 C.ar      1 <0>        -0.0625
      4 C4          2.4037    0.0345   -0.0216 C.ar      1 <0>        -0.0913
      5 C5          1.2243   -0.6799   -0.0138 C.ar      1 <0>        -0.0587
      6 C6          0.0021   -0.0041    0.0020 C.ar      1 <0>        -0.0707
      7 C7         -1.2647   -0.7629    0.0105 C.2       1 <0>         0.3596
      8 N1         -2.5364   -0.2082    0.0201 N.pl3     1 <0>        -0.5840
      9 O1         -3.4049   -1.2198    0.5700 O.3       1 <0>        -0.0956
     10 C8         -2.8836   -2.3831   -0.0912 C.3       1 <0>         0.0495
     11 H1         -3.2340   -2.4717   -1.1195 H         1 <0>         0.1434
     12 C9         -1.3735   -2.1156    0.0043 C.2       1 <0>        -0.3851
     13 H2         -2.7895    0.6785   -0.2809 H         1 <0>         0.4603
     14 C10        -0.8482   -3.4056    0.1378 C.2       1 <0>         0.6272
     15 O2          0.2694   -3.7498   -0.2031 O.2       1 <0>        -0.4652
     16 N2         -1.7723   -4.2076    0.7029 N.am      1 <0>        -0.5187
     17 C11        -3.0280   -3.6657    0.6794 C.2       1 <0>         0.5519
     18 O3         -4.0435   -4.1158    1.1655 O.2       1 <0>        -0.4278
     19 C12        -1.4820   -5.4629    1.2534 C.ar      1 <0>         0.1538
     20 C13        -2.4965   -6.2289    1.8116 C.ar      1 <0>        -0.1326
     21 C14        -2.2075   -7.4671    2.3541 C.ar      1 <0>        -0.0025
     22 C15        -0.9082   -7.9430    2.3416 C.ar      1 <0>        -0.1100
     23 C16         0.1048   -7.1813    1.7863 C.ar      1 <0>        -0.0032
     24 C17        -0.1803   -5.9453    1.2366 C.ar      1 <0>        -0.1266
     25 Cl1         1.7338   -7.7813    1.7736 Cl        1 <0>        -0.0415
     26 Cl2        -3.4755   -8.4254    3.0522 Cl        1 <0>        -0.0417
     27 Br1         4.0003    2.3908   -0.0244 Br        1 <0>        -0.0320
     28 H3         -0.9587    1.9209    0.0260 H         1 <0>         0.1371
     29 H4          1.1563    3.1751    0.0081 H         1 <0>         0.1445
     30 H5          3.3495   -0.4868   -0.0345 H         1 <0>         0.1466
     31 H6          1.2456   -1.7597   -0.0205 H         1 <0>         0.1552
     32 H7         -3.5106   -5.8575    1.8222 H         1 <0>         0.1686
     33 H8         -0.6843   -8.9105    2.7663 H         1 <0>         0.1508
     34 H9          0.6099   -5.3532    0.7990 H         1 <0>         0.1734
@<TRIPOS>BOND
     1    1    6 ar
     2    1    2 ar
     3    1   28 1
     4    2    3 ar
     5    2   29 1
     6    3    4 ar
     7    3   27 1
     8    4    5 ar
     9    4   30 1
    10    5    6 ar
    11    5   31 1
    12    6    7 1
    13    7   12 2
    14    7    8 1
    15    8    9 1
    16    8   13 1
    17    9   10 1
    18   10   11 1
    19   10   17 1
    20   10   12 1
    21   12   14 1
    22   14   15 2
    23   14   16 am
    24   16   17 am
    25   16   19 1
    26   17   18 2
    27   19   24 ar
    28   19   20 ar
    29   20   21 ar
    30   20   32 1
    31   21   22 ar
    32   21   26 1
    33   22   23 ar
    34   22   33 1
    35   23   24 ar
    36   23   25 1
    37   24   34 1
@<TRIPOS>MOLECULE
ZINC48990371
   55    59     0     0     0
SMALL
USER_CHARGES

@<TRIPOS>ATOM
      1 C1         -3.6663   -1.9525    3.3657 C.3       1 <0>        -0.1129
      2 C2         -2.5952   -2.5833    2.5136 C.ar      1 <0>         0.1967
      3 C3         -2.9685   -3.3457    1.4122 C.ar      1 <0>        -0.1748
      4 C4         -2.0062   -3.9239    0.6293 C.ar      1 <0>        -0.0260
      5 C5         -0.6615   -3.7209    0.9750 C.ar      1 <0>        -0.1689
      6 C6          0.3875   -4.2868    0.2124 C.ar      1 <0>         0.2672
      7 C7          1.7049   -4.0344    0.6267 C.ar      1 <0>        -0.1910
      8 C8          1.9245   -3.2425    1.7641 C.ar      1 <0>         0.2013
      9 N1          0.9332   -2.7324    2.4495 N.ar      1 <0>        -0.4583
     10 C9         -0.3473   -2.9344    2.1085 C.ar      1 <0>         0.3317
     11 N2         -1.3351   -2.3937    2.8281 N.ar      1 <0>        -0.4677
     12 C10         2.8421   -4.5941   -0.1226 C.2       1 <0>         0.5773
     13 O1          3.4871   -5.5122    0.3471 O.2       1 <0>        -0.5186
     14 N3          3.1682   -4.0893   -1.3289 N.am      1 <0>        -0.5999
     15 C11         2.4390   -2.9395   -1.8812 C.3       1 <0>         0.1078
     16 C12         3.4486   -1.8516   -2.2609 C.3       1 <0>        -0.1358
     17 C13         4.4983   -2.4425   -3.2049 C.3       1 <0>        -0.1204
     18 C14         5.2487   -3.5709   -2.4938 C.3       1 <0>        -0.1358
     19 C15         4.2636   -4.6744   -2.1140 C.3       1 <0>         0.1125
     20 N4          0.1252   -5.0588   -0.8975 N.pl3     1 <0>        -0.7055
     21 C16         0.0507   -6.4493   -0.7798 C.ar      1 <0>         0.2016
     22 C17         0.0707   -7.0446    0.4755 C.ar      1 <0>        -0.1687
     23 C18        -0.0032   -8.4177    0.5856 C.ar      1 <0>        -0.0612
     24 C19        -0.0968   -9.2065   -0.5499 C.ar      1 <0>        -0.1359
     25 C20        -0.1168   -8.6172   -1.8008 C.ar      1 <0>        -0.0555
     26 C21        -0.0492   -7.2399   -1.9160 C.ar      1 <0>        -0.1627
     27 C22        -0.2226   -9.6855   -2.8680 C.3       1 <0>        -0.0826
     28 C23         0.1747  -11.0004   -2.1642 C.3       1 <0>        -0.1208
     29 C24        -0.1880  -10.7110   -0.6922 C.3       1 <0>        -0.0784
     30 H1         -3.9026   -0.9617    2.9777 H         1 <0>         0.0885
     31 H2         -4.5612   -2.5744    3.3436 H         1 <0>         0.0833
     32 H3         -3.3097   -1.8653    4.3920 H         1 <0>         0.0854
     33 H4         -4.0135   -3.4812    1.1757 H         1 <0>         0.1471
     34 H5         -2.2744   -4.5201   -0.2304 H         1 <0>         0.1438
     35 H6          2.9382   -3.0491    2.0824 H         1 <0>         0.1741
     36 H7          1.8852   -3.2494   -2.7673 H         1 <0>         0.0695
     37 H8          1.7479   -2.5514   -1.1329 H         1 <0>         0.0784
     38 H9          2.9304   -1.0327   -2.7599 H         1 <0>         0.0774
     39 H10         3.9374   -1.4788   -1.3609 H         1 <0>         0.0698
     40 H11         4.0061   -2.8374   -4.0937 H         1 <0>         0.0650
     41 H12         5.2038   -1.6644   -3.4962 H         1 <0>         0.0685
     42 H13         6.0119   -3.9757   -3.1585 H         1 <0>         0.0783
     43 H14         5.7207   -3.1819   -1.5916 H         1 <0>         0.0683
     44 H15         4.7759   -5.4307   -1.5193 H         1 <0>         0.0945
     45 H16         3.8619   -5.1290   -3.0196 H         1 <0>         0.0688
     46 H17        -0.0079   -4.6374   -1.7610 H         1 <0>         0.4134
     47 H18         0.1442   -6.4337    1.3630 H         1 <0>         0.1154
     48 H19         0.0123   -8.8802    1.5614 H         1 <0>         0.1212
     49 H20        -0.0698   -6.7793   -2.8926 H         1 <0>         0.1198
     50 H21        -1.2454   -9.7493   -3.2392 H         1 <0>         0.0812
     51 H22         0.4649   -9.4719   -3.6865 H         1 <0>         0.0747
     52 H23        -0.4077  -11.8373   -2.5495 H         1 <0>         0.0769
     53 H24         1.2430  -11.1891   -2.2701 H         1 <0>         0.0725
     54 H25         0.5230  -11.1979   -0.0248 H         1 <0>         0.0728
     55 H26        -1.2016  -11.0503   -0.4788 H         1 <0>         0.0769
@<TRIPOS>BOND
     1    1    2 1
     2    1   30 1
     3    1   31 1
     4    1   32 1
     5    2   11 ar
     6    2    3 ar
     7    3    4 ar
     8    3   33 1
     9    4    5 ar
    10    4   34 1
    11    5   10 ar
    12    5    6 ar
    13    6    7 ar
    14    6   20 1
    15    7    8 ar
    16    7   12 1
    17    8    9 ar
    18    8   35 1
    19    9   10 ar
    20   10   11 ar
    21   12   13 2
    22   12   14 am
    23   14   19 1
    24   14   15 1
    25   15   16 1
    26   15   36 1
    27   15   37 1
    28   16   17 1
    29   16   38 1
    30   16   39 1
    31   17   18 1
    32   17   40 1
    33   17   41 1
    34   18   19 1
    35   18   42 1
    36   18   43 1
    37   19   44 1
    38   19   45 1
    39   20   21 1
    40   20   46 1
    41   21   26 ar
    42   21   22 ar
    43   22   23 ar
    44   22   47 1
    45   23   24 ar
    46   23   48 1
    47   24   29 1
    48   24   25 ar
    49   25   26 ar
    50   25   27 1
    51   26   49 1
    52   27   28 1
    53   27   50 1
    54   27   51 1
    55   28   29 1
    56   28   52 1
    57   28   53 1
    58   29   54 1
    59   29   55 1
@<TRIPOS>MOLECULE
ZINC55731035
   45    48     0     0     0
SMALL
USER_CHARGES

@<TRIPOS>ATOM
      1 C1         -0.0184    1.5028    0.0103 C.3       1 <0>        -0.0897
      2 C2          0.0021   -0.0041    0.0020 C.2       1 <0>         0.1389
      3 C3          0.0085   -0.8669   -1.1804 C.2       1 <0>        -0.3000
      4 C4          0.0289   -2.1554   -0.7288 C.2       1 <0>         0.1295
      5 O1          0.0349   -2.1260    0.6063 O.3       1 <0>        -0.0702
      6 N1          0.0230   -0.7819    1.0439 N.2       1 <0>        -0.3054
      7 C5          0.0422   -3.3941   -1.5871 C.3       1 <0>        -0.0306
      8 C6          1.3045   -4.2064   -1.2907 C.3       1 <0>        -0.1508
      9 C7         -1.1937   -4.2416   -1.2786 C.3       1 <0>        -0.1498
     10 C8         -0.0049   -0.4290   -2.5878 C.2       1 <0>         0.6006
     11 O2          1.0427   -0.2337   -3.1738 O.2       1 <0>        -0.5171
     12 N2         -1.1780   -0.2452   -3.2252 N.am      1 <0>        -0.6047
     13 C9         -2.4568   -0.4695   -2.5342 C.3       1 <0>         0.1154
     14 C10        -3.2140    0.8596   -2.4383 C.3       1 <0>        -0.0758
     15 C11        -3.1620    1.5535   -3.7788 C.2       1 <0>         0.0843
     16 C12        -2.2722    1.2576   -4.7509 C.2       1 <0>        -0.1788
     17 C13        -2.5454    2.1390   -5.8658 C.ar      1 <0>        -0.0888
     18 C14        -1.9549    2.2899   -7.1246 C.ar      1 <0>        -0.0467
     19 C15        -2.4861    3.2510   -7.9487 C.ar      1 <0>        -0.1449
     20 C16        -3.5569    4.0411   -7.5639 C.ar      1 <0>        -0.0626
     21 C17        -4.1611    3.9132   -6.3244 C.ar      1 <0>        -0.1085
     22 C18        -3.6420    2.9451   -5.4659 C.ar      1 <0>         0.1264
     23 N3         -3.9878    2.5629   -4.2018 N.pl3     1 <0>        -0.5769
     24 H1         -4.7098    2.9479   -3.6808 H         1 <0>         0.4188
     25 Br1        -5.6221    5.0023   -5.8191 Br        1 <0>        -0.0446
     26 C19        -1.2151    0.1922   -4.6320 C.3       1 <0>         0.1908
     27 H2          1.0042    1.8801    0.0026 H         1 <0>         0.0973
     28 H3         -0.5455    1.8639   -0.8728 H         1 <0>         0.0857
     29 H4         -0.5286    1.8543    0.9071 H         1 <0>         0.0902
     30 H5          0.0331   -3.1076   -2.6387 H         1 <0>         0.1036
     31 H6          1.3141   -5.1023   -1.9114 H         1 <0>         0.0759
     32 H7          2.1850   -3.6026   -1.5104 H         1 <0>         0.0645
     33 H8          1.3136   -4.4929   -0.2390 H         1 <0>         0.0679
     34 H9         -2.0930   -3.6629   -1.4898 H         1 <0>         0.0613
     35 H10        -1.1841   -5.1375   -1.8994 H         1 <0>         0.0761
     36 H11        -1.1846   -4.5281   -0.2270 H         1 <0>         0.0687
     37 H12        -3.0530   -1.1891   -3.0954 H         1 <0>         0.0852
     38 H13        -2.2671   -0.8542   -1.5322 H         1 <0>         0.0934
     39 H14        -4.2522    0.6690   -2.1663 H         1 <0>         0.0946
     40 H15        -2.7476    1.4913   -1.6823 H         1 <0>         0.0886
     41 H16        -1.1197    1.6791   -7.4339 H         1 <0>         0.1387
     42 H17        -2.0551    3.3959   -8.9283 H         1 <0>         0.1305
     43 H18        -3.9335    4.7817   -8.2540 H         1 <0>         0.1322
     44 H19        -0.2456    0.5995   -4.9189 H         1 <0>         0.1037
     45 H20        -1.4688   -0.6504   -5.2752 H         1 <0>         0.0832
@<TRIPOS>BOND
     1    1    2 1
     2    1   27 1
     3    1   28 1
     4    1   29 1
     5    2    6 2
     6    2    3 1
     7    3    4 2
     8    3   10 1
     9    4    5 1
    10    4    7 1
    11    5    6 1
    12    7    8 1
    13    7    9 1
    14    7   30 1
    15    8   31 1
    16    8   32 1
    17    8   33 1
    18    9   34 1
    19    9   35 1
    20    9   36 1
    21   10   11 2
    22   10   12 am
    23   12   26 1
    24   12   13 1
    25   13   14 1
    26   13   37 1
    27   13   38 1
    28   14   15 1
    29   14   39 1
    30   14   40 1
    31   15   23 1
    32   15   16 2
    33   16   17 1
    34   16   26 1
    35   17   22 ar
    36   17   18 ar
    37   18   19 ar
    38   18   41 1
    39   19   20 ar
    40   19   42 1
    41   20   21 ar
    42   20   43 1
    43   21   22 ar
    44   21   25 1
    45   22   23 1
    46   23   24 1
    47   26   44 1
    48   26   45 1
@<TRIPOS>MOLECULE
ZINC64460243
   41    44     0     0     0
SMALL
USER_CHARGES

@<TRIPOS>ATOM
      1 C1          0.0251    1.5032    0.0055 C.3       1 <0>        -0.1167
      2 C2          0.0340   -0.0037   -0.0015 C.ar      1 <0>        -0.0854
      3 C3          0.6317   -0.6854   -1.0460 C.ar      1 <0>        -0.1083
      4 C4          0.6415   -2.0662   -1.0554 C.ar      1 <0>        -0.1061
      5 C5          0.0507   -2.7705   -0.0142 C.ar      1 <0>         0.1253
      6 C6         -0.5482   -2.0832    1.0331 C.ar      1 <0>        -0.0964
      7 C7         -0.5504   -0.7019    1.0390 C.ar      1 <0>        -0.1050
      8 C8         -1.1904   -2.8434    2.1648 C.3       1 <0>        -0.1184
      9 N1          0.0586   -4.1697   -0.0209 N.am      1 <0>        -0.6489
     10 C9         -0.0404   -4.8386   -1.1868 C.2       1 <0>         0.5470
     11 O1         -0.0541   -4.2300   -2.2358 O.2       1 <0>        -0.4808
     12 C10        -0.1340   -6.3427   -1.1871 C.3       1 <0>        -0.0816
     13 H1          0.3044   -6.7624   -0.2816 H         1 <0>         0.1930
     14 C11         0.5131   -6.9390   -2.4450 C.2       1 <0>         0.4532
     15 N2          1.7975   -6.7873   -2.7184 N.2       1 <0>        -0.5306
     16 C12         2.3921   -7.2939   -3.8055 C.2       1 <0>         0.5449
     17 O2          3.5812   -7.1269   -4.0134 O.2       1 <0>        -0.4267
     18 C13         1.5510   -8.0622   -4.7405 C.ar      1 <0>        -0.1737
     19 C14         2.0665   -8.6337   -5.9023 C.ar      1 <0>        -0.0278
     20 C15         1.2239   -9.3414   -6.7350 C.ar      1 <0>        -0.0413
     21 C16        -0.1209   -9.4832   -6.4197 C.ar      1 <0>        -0.0504
     22 C17        -0.6389   -8.9204   -5.2714 C.ar      1 <0>        -0.1550
     23 C18         0.1974   -8.2050   -4.4241 C.ar      1 <0>         0.1274
     24 N3         -0.3216   -7.6260   -3.2484 N.pl3     1 <0>        -0.4527
     25 C19        -1.6476   -7.7678   -2.9415 C.2       1 <0>         0.2457
     26 S1         -2.8394   -8.6022   -3.8439 S.2       1 <0>        -0.2370
     27 S2         -1.8686   -6.8994   -1.4040 S.3       1 <0>         0.0854
     28 Cl1         1.8495  -10.0598   -8.1863 Cl        1 <0>        -0.0434
     29 H2          0.9181    1.8695    0.5119 H         1 <0>         0.0726
     30 H3          0.0124    1.8713   -1.0205 H         1 <0>         0.0680
     31 H4         -0.8617    1.8589    0.5300 H         1 <0>         0.0677
     32 H5          1.0909   -0.1372   -1.8553 H         1 <0>         0.1275
     33 H6          1.1078   -2.5980   -1.8716 H         1 <0>         0.1397
     34 H7         -1.0125   -0.1666    1.8554 H         1 <0>         0.1290
     35 H8         -0.4523   -3.0237    2.9464 H         1 <0>         0.0748
     36 H9         -2.0158   -2.2596    2.5723 H         1 <0>         0.0753
     37 H10        -1.5676   -3.7965    1.7943 H         1 <0>         0.0631
     38 H11         0.1353   -4.6583    0.8135 H         1 <0>         0.4159
     39 H12         3.1124   -8.5237   -6.1481 H         1 <0>         0.1614
     40 H13        -0.7687  -10.0398   -7.0808 H         1 <0>         0.1562
     41 H14        -1.6861   -9.0350   -5.0335 H         1 <0>         0.2127
@<TRIPOS>BOND
     1    1    2 1
     2    1   29 1
     3    1   30 1
     4    1   31 1
     5    2    7 ar
     6    2    3 ar
     7    3    4 ar
     8    3   32 1
     9    4    5 ar
    10    4   33 1
    11    5    6 ar
    12    5    9 1
    13    6    7 ar
    14    6    8 1
    15    7   34 1
    16    8   35 1
    17    8   36 1
    18    8   37 1
    19    9   10 am
    20    9   38 1
    21   10   11 2
    22   10   12 1
    23   12   13 1
    24   12   27 1
    25   12   14 1
    26   14   24 1
    27   14   15 2
    28   15   16 1
    29   16   17 2
    30   16   18 1
    31   18   23 ar
    32   18   19 ar
    33   19   20 ar
    34   19   39 1
    35   20   21 ar
    36   20   28 1
    37   21   22 ar
    38   21   40 1
    39   22   23 ar
    40   22   41 1
    41   23   24 1
    42   24   25 1
    43   25   26 2
    44   25   27 1
@<TRIPOS>MOLECULE
ZINC11566033
   37    39     0     0     0
SMALL
USER_CHARGES
N-[(3,5-dibromo-2-hydroxy-phenyl)methyleneamino]-2-(1H-indol-3-yl)acetamide
@<TRIPOS>ATOM
      1 C1         -0.6341   -2.3075   -0.0043 C.ar      1 <0>        -0.1435
      2 C2          0.7038   -2.6781   -0.0190 C.ar      1 <0>        -0.0992
      3 C3          1.6972   -1.7238   -0.0234 C.ar      1 <0>        -0.1290
      4 C4          1.3591   -0.3743   -0.0129 C.ar      1 <0>         0.0955
      5 C5          0.0021   -0.0041    0.0020 C.ar      1 <0>        -0.0893
      6 C6         -0.9886   -0.9881    0.0066 C.ar      1 <0>        -0.0709
      7 C7         -0.0178    1.4606    0.0101 C.2       1 <0>        -0.1644
      8 C8          1.2605    1.8705    0.0001 C.2       1 <0>         0.0728
      9 N1          2.0972    0.7879   -0.0137 N.pl3     1 <0>        -0.5926
     10 H1          3.0662    0.8327   -0.0227 H         1 <0>         0.4174
     11 C9         -1.2412    2.3405    0.0209 C.3       1 <0>        -0.0545
     12 C10        -1.7143    2.5256    1.4397 C.2       1 <0>         0.5260
     13 O1         -1.1167    1.9951    2.3525 O.2       1 <0>        -0.4802
     14 N2         -2.8013    3.2805    1.6945 N.am      1 <0>        -0.5889
     15 N3         -3.2412    3.4525    3.0135 N.2       1 <0>        -0.1925
     16 C11        -4.2880    4.1795    3.2590 C.2       1 <0>         0.0913
     17 C12        -4.7507    4.3605    4.6465 C.ar      1 <0>        -0.0672
     18 C13        -5.8769    5.1422    4.9149 C.ar      1 <0>        -0.0345
     19 C14        -6.3051    5.3078    6.2160 C.ar      1 <0>        -0.1037
     20 C15        -5.6225    4.7020    7.2581 C.ar      1 <0>        -0.0344
     21 C16        -4.5067    3.9256    7.0050 C.ar      1 <0>        -0.1247
     22 C17        -4.0667    3.7448    5.7030 C.ar      1 <0>         0.1892
     23 O2         -2.9736    2.9781    5.4529 O.3       1 <0>        -0.4555
     24 Br1        -3.5840    3.1035    8.4362 Br        1 <0>        -0.0167
     25 Br2        -7.8294    6.3667    6.5782 Br        1 <0>        -0.0270
     26 H2         -1.4007   -3.0682   -0.0007 H         1 <0>         0.1221
     27 H3          0.9683   -3.7251   -0.0268 H         1 <0>         0.1254
     28 H4          2.7350   -2.0223   -0.0346 H         1 <0>         0.1199
     29 H5         -2.0314   -0.7072    0.0183 H         1 <0>         0.1168
     30 H6          1.5809    2.9018    0.0022 H         1 <0>         0.1696
     31 H7         -0.9945    3.3111   -0.4094 H         1 <0>         0.1048
     32 H8         -2.0306    1.8724   -0.5672 H         1 <0>         0.1048
     33 H9         -3.2792    3.7047    0.9647 H         1 <0>         0.3860
     34 H10        -4.8201    4.6518    2.4464 H         1 <0>         0.1273
     35 H11        -6.4115    5.6164    4.1051 H         1 <0>         0.1498
     36 H12        -5.9639    4.8365    8.2738 H         1 <0>         0.1494
     37 H13        -2.1397    3.4677    5.4601 H         1 <0>         0.4004
@<TRIPOS>BOND
     1    1    6 ar
     2    1    2 ar
     3    1   26 1
     4    2    3 ar
     5    2   27 1
     6    3    4 ar
     7    3   28 1
     8    4    9 1
     9    4    5 ar
    10    5    6 ar
    11    5    7 1
    12    6   29 1
    13    7    8 2
    14    7   11 1
    15    8    9 1
    16    8   30 1
    17    9   10 1
    18   11   12 1
    19   11   31 1
    20   11   32 1
    21   12   13 2
    22   12   14 am
    23   14   15 1
    24   14   33 1
    25   15   16 2
    26   16   17 1
    27   16   34 1
    28   17   22 ar
    29   17   18 ar
    30   18   19 ar
    31   18   35 1
    32   19   20 ar
    33   19   25 1
    34   20   21 ar
    35   20   36 1
    36   21   22 ar
    37   21   24 1
    38   22   23 1
    39   23   37 1
@<TRIPOS>MOLECULE
ZINC14018105
   34    35     0     0     0
SMALL
USER_CHARGES
N-[[(2-bromobenzoyl)amino]carbamothioyl]-2,4-dichloro-benzamide
@<TRIPOS>ATOM
      1 C1          2.3663   -4.6354   -0.0435 C.ar      1 <0>        -0.1090
      2 C2          3.5756   -5.3086   -0.0592 C.ar      1 <0>        -0.0776
      3 C3          4.7660   -4.6050   -0.0677 C.ar      1 <0>        -0.0949
      4 C4          4.7552   -3.2239   -0.0607 C.ar      1 <0>        -0.0376
      5 C5          3.5382   -2.5389   -0.0454 C.ar      1 <0>        -0.1121
      6 C6          2.3407   -3.2566   -0.0319 C.ar      1 <0>        -0.0821
      7 C7          3.5182   -1.0612   -0.0372 C.2       1 <0>         0.5578
      8 O1          4.5625   -0.4391   -0.0439 O.2       1 <0>        -0.4802
      9 N1          2.3420   -0.4032   -0.0225 N.am      1 <0>        -0.5502
     10 N2          2.3230    0.9976   -0.0148 N.pl3     1 <0>        -0.4524
     11 C8          1.1468    1.6555   -0.0000 C.2       1 <0>         0.5148
     12 S1          1.1236    3.3673    0.0094 S.2       1 <0>        -0.4456
     13 N3         -0.0111    0.9658    0.0074 N.am      1 <0>        -0.6438
     14 C9         -1.1873    1.6238    0.0165 C.2       1 <0>         0.5308
     15 O2         -1.2038    2.8390    0.0232 O.2       1 <0>        -0.3720
     16 C10        -2.4557    0.8683    0.0184 C.ar      1 <0>        -0.1296
     17 C11        -2.4403   -0.5286    0.0107 C.ar      1 <0>        -0.0669
     18 C12        -3.6277   -1.2283    0.0125 C.ar      1 <0>        -0.1108
     19 C13        -4.8360   -0.5497    0.0224 C.ar      1 <0>         0.0037
     20 C14        -4.8596    0.8343    0.0295 C.ar      1 <0>        -0.1074
     21 C15        -3.6772    1.5475    0.0337 C.ar      1 <0>         0.0298
     22 Cl1        -3.7078    3.2832    0.0505 Cl        1 <0>        -0.0033
     23 Cl2        -6.3267   -1.4394    0.0251 Cl        1 <0>        -0.0393
     24 Br1         6.3839   -2.2630   -0.0711 Br        1 <0>         0.0015
     25 H1          1.4404   -5.1913   -0.0366 H         1 <0>         0.1418
     26 H2          3.5895   -6.3885   -0.0644 H         1 <0>         0.1429
     27 H3          5.7061   -5.1365   -0.0795 H         1 <0>         0.1458
     28 H4          1.3962   -2.7330   -0.0156 H         1 <0>         0.1284
     29 H5          1.5086   -0.8996   -0.0172 H         1 <0>         0.4142
     30 H6          3.1563    1.4940   -0.0201 H         1 <0>         0.4601
     31 H7          0.0021   -0.0041    0.0020 H         1 <0>         0.3984
     32 H8         -1.4997   -1.0592    0.0038 H         1 <0>         0.1369
     33 H9         -3.6165   -2.3082    0.0066 H         1 <0>         0.1511
     34 H10        -5.8045    1.3573    0.0368 H         1 <0>         0.1568
@<TRIPOS>BOND
     1    1    6 ar
     2    1    2 ar
     3    1   25 1
     4    2    3 ar
     5    2   26 1
     6    3    4 ar
     7    3   27 1
     8    4    5 ar
     9    4   24 1
    10    5    6 ar
    11    5    7 1
    12    6   28 1
    13    7    8 2
    14    7    9 am
    15    9   10 1
    16    9   29 1
    17   10   11 1
    18   10   30 1
    19   11   12 2
    20   11   13 1
    21   13   14 am
    22   13   31 1
    23   14   15 2
    24   14   16 1
    25   16   21 ar
    26   16   17 ar
    27   17   18 ar
    28   17   32 1
    29   18   19 ar
    30   18   33 1
    31   19   20 ar
    32   19   23 1
    33   20   21 ar
    34   20   34 1
    35   21   22 1
@<TRIPOS>MOLECULE
ZINC32870372
   44    45     0     0     0
SMALL
USER_CHARGES
N-(4-bromo-2-methyl-phenyl)-2-[[(1S)-1-(4-chlorophenyl)ethyl]carbamoylamino]acetamide
@<TRIPOS>ATOM
      1 C1          3.8684    6.2872    1.0631 C.3       1 <0>        -0.1178
      2 C2          2.5917    6.7559    0.4140 C.ar      1 <0>        -0.1109
      3 C3          2.3228    8.1071    0.3135 C.ar      1 <0>        -0.0697
      4 C4          1.1481    8.5378   -0.2767 C.ar      1 <0>        -0.1060
      5 C5          0.2423    7.6172   -0.7736 C.ar      1 <0>        -0.0736
      6 C6          0.5087    6.2654   -0.6809 C.ar      1 <0>        -0.1247
      7 C7          1.6870    5.8301   -0.0884 C.ar      1 <0>         0.1679
      8 N1          1.9594    4.4606    0.0073 N.am      1 <0>        -0.6770
      9 C8          0.9472    3.5708    0.0090 C.2       1 <0>         0.5144
     10 O1         -0.2017    3.9591    0.0287 O.2       1 <0>        -0.5165
     11 C9          1.2428    2.0932   -0.0137 C.3       1 <0>         0.1254
     12 N2         -0.0157    1.3433   -0.0071 N.am      1 <0>        -0.7500
     13 C10         0.0028   -0.0043   -0.0245 C.2       1 <0>         0.7138
     14 O2          1.0639   -0.5975   -0.0457 O.2       1 <0>        -0.5952
     15 N3         -1.1550   -0.6942   -0.0184 N.am      1 <0>        -0.7515
     16 C11        -1.1349   -2.1589   -0.0373 C.3       1 <0>         0.2058
     17 H1         -0.2871   -2.4707   -0.6650 H         1 <0>         0.0990
     18 C12        -0.9838   -2.6854    1.3913 C.3       1 <0>        -0.1599
     19 C13        -2.4232   -2.6714   -0.6279 C.ar      1 <0>        -0.0861
     20 C14        -3.6213   -2.0608   -0.3072 C.ar      1 <0>        -0.1020
     21 C15        -4.8026   -2.5268   -0.8529 C.ar      1 <0>        -0.1054
     22 C16        -4.7870   -3.6116   -1.7115 C.ar      1 <0>        -0.0344
     23 C17        -3.5883   -4.2258   -2.0276 C.ar      1 <0>        -0.1049
     24 C18        -2.4071   -3.7554   -1.4857 C.ar      1 <0>        -0.0944
     25 Cl1        -6.2711   -4.2023   -2.3913 Cl        1 <0>        -0.0666
     26 Br1         0.7799   10.3882   -0.4054 Br        1 <0>        -0.0498
     27 H2          4.4516    7.1583    1.3962 H         1 <0>         0.0756
     28 H3          4.4574    5.7074    0.3372 H         1 <0>         0.0723
     29 H4          3.6280    5.6537    1.9297 H         1 <0>         0.0734
     30 H5          3.0282    8.8277    0.7002 H         1 <0>         0.1368
     31 H6         -0.6739    7.9562   -1.2339 H         1 <0>         0.1358
     32 H7         -0.1987    5.5473   -1.0685 H         1 <0>         0.1531
     33 H8          2.9996    4.1106    0.0811 H         1 <0>         0.4412
     34 H9          1.8116    1.8470   -0.9225 H         1 <0>         0.1019
     35 H10         1.8347    1.8240    0.8735 H         1 <0>         0.1006
     36 H11        -0.9757    1.8800    0.0121 H         1 <0>         0.4297
     37 H12        -2.1150   -0.1575    0.0008 H         1 <0>         0.4138
     38 H13        -0.9687   -3.7852    1.3771 H         1 <0>         0.0689
     39 H14        -1.8306   -2.3382    2.0015 H         1 <0>         0.0601
     40 H15        -0.0435   -2.3113    1.8224 H         1 <0>         0.0678
     41 H16        -3.6338   -1.2168    0.3665 H         1 <0>         0.1312
     42 H17        -5.7380   -2.0470   -0.6058 H         1 <0>         0.1359
     43 H18        -3.5756   -5.0729   -2.6975 H         1 <0>         0.1365
     44 H19        -1.4713   -4.2349   -1.7321 H         1 <0>         0.1356
@<TRIPOS>BOND
     1    1    2 1
     2    1   27 1
     3    1   28 1
     4    1   29 1
     5    2    7 ar
     6    2    3 ar
     7    3    4 ar
     8    3   30 1
     9    4    5 ar
    10    4   26 1
    11    5    6 ar
    12    5   31 1
    13    6    7 ar
    14    6   32 1
    15    7    8 1
    16    8    9 am
    17    8   33 1
    18    9   10 2
    19    9   11 1
    20   11   12 1
    21   11   34 1
    22   11   35 1
    23   12   13 am
    24   12   36 1
    25   13   14 2
    26   13   15 am
    27   15   16 1
    28   15   37 1
    29   16   17 1
    30   16   18 1
    31   16   19 1
    32   18   38 1
    33   18   39 1
    34   18   40 1
    35   19   24 ar
    36   19   20 ar
    37   20   21 ar
    38   20   41 1
    39   21   22 ar
    40   21   42 1
    41   22   23 ar
    42   22   25 1
    43   23   24 ar
    44   23   43 1
    45   24   44 1
@<TRIPOS>MOLECULE
ZINC39707849
   64    68     0     0     0
SMALL
USER_CHARGES

@<TRIPOS>ATOM
      1 C1         -0.0187    1.5280    0.0104 C.3       1 <0>        -0.1748
      2 C2          0.0021   -0.0041    0.0020 C.3       1 <0>         0.0620
      3 C3          0.5734   -0.5048   -1.3205 C.3       1 <0>        -0.1428
      4 C4          2.0882   -0.3011   -1.3573 C.3       1 <0>         0.1428
      5 C5          2.7028   -1.0859   -0.1981 C.3       1 <0>        -0.1453
      6 C6          2.1474   -0.5901    1.1329 C.3       1 <0>         0.0602
      7 N1          0.6968   -0.5291    1.1642 N.4       1 <0>        -0.4879
      8 C7          2.7695    0.7662    1.4811 C.3       1 <0>        -0.1702
      9 C8          2.5998   -1.5893    2.2229 C.3       1 <0>        -0.1775
     10 N2          2.6155   -0.8189   -2.6259 N.am      1 <0>        -0.7304
     11 C9          3.7704   -0.3341   -3.1235 C.2       1 <0>         0.5354
     12 O1          4.3741    0.5298   -2.5234 O.2       1 <0>        -0.5368
     13 C10         4.3117   -0.8656   -4.4257 C.3       1 <0>        -0.0851
     14 H1          3.5828   -0.6840   -5.2155 H         1 <0>         0.1209
     15 C11         4.5422   -2.3690   -4.2945 C.3       1 <0>        -0.1358
     16 H2          4.2590   -2.6871   -3.2911 H         1 <0>         0.0650
     17 C12         6.0220   -2.7344   -4.5418 C.3       1 <0>         0.0154
     18 C13         6.3542   -2.1640   -5.9119 C.ar      1 <0>        -0.0521
     19 C14         6.8203   -2.8937   -6.9681 C.ar      1 <0>        -0.0880
     20 C15         7.0829   -2.2429   -8.1668 C.ar      1 <0>        -0.1208
     21 C16         6.8753   -0.8812   -8.2848 C.ar      1 <0>        -0.1288
     22 C17         6.4011   -0.1455   -7.2063 C.ar      1 <0>        -0.1098
     23 C18         6.1445   -0.7919   -6.0310 C.ar      1 <0>        -0.0888
     24 C19         5.6227   -0.1249   -4.7679 C.3       1 <0>         0.0140
     25 C20         6.6051   -0.5191   -3.6760 C.ar      1 <0>        -0.0590
     26 C21         6.8155   -1.8887   -3.5579 C.ar      1 <0>        -0.0798
     27 C22         7.6742   -2.3847   -2.6189 C.ar      1 <0>        -0.1148
     28 C23         8.3361   -1.4958   -1.7815 C.ar      1 <0>        -0.1274
     29 C24         8.1267   -0.1344   -1.8994 C.ar      1 <0>        -0.1321
     30 C25         7.2529    0.3597   -2.8556 C.ar      1 <0>        -0.0848
     31 C26         3.6826   -3.0894   -5.3010 C.2       1 <0>         0.5006
     32 O2          4.0522   -4.1535   -5.7677 O.co2     1 <0>        -0.6755
     33 O3          2.6177   -2.6082   -5.6488 O.co2     1 <0>        -0.6958
     34 C27        -1.4680   -0.4777    0.0788 C.3       1 <0>        -0.1780
     35 H3          1.0039    1.9053    0.0027 H         1 <0>         0.0831
     36 H4         -0.5459    1.8891   -0.8726 H         1 <0>         0.1046
     37 H5         -0.5289    1.8796    0.9072 H         1 <0>         0.0809
     38 H6          0.3481   -1.5676   -1.4360 H         1 <0>         0.0963
     39 H7          0.1145    0.0434   -2.1468 H         1 <0>         0.1168
     40 H8          2.3331    0.7540   -1.2759 H         1 <0>         0.1021
     41 H9          2.4724   -2.1472   -0.3170 H         1 <0>         0.0904
     42 H10         3.7880   -0.9586   -0.2104 H         1 <0>         0.1140
     43 H11         0.4161    0.0213    1.9818 H         1 <0>         0.4224
     44 H12         2.5302    1.4872    0.6994 H         1 <0>         0.0831
     45 H13         2.3694    1.1160    2.4328 H         1 <0>         0.0776
     46 H14         3.8516    0.6604    1.5587 H         1 <0>         0.1044
     47 H15         3.6888   -1.6255    2.2532 H         1 <0>         0.1058
     48 H16         2.2199   -1.2664    3.1922 H         1 <0>         0.0798
     49 H17         2.2096   -2.5805    1.9917 H         1 <0>         0.0812
     50 H18         2.1327   -1.5098   -3.1059 H         1 <0>         0.4167
     51 H19         6.2211   -3.8018   -4.4473 H         1 <0>         0.1061
     52 H20         6.9821   -3.9572   -6.8729 H         1 <0>         0.1244
     53 H21         7.4521   -2.8044   -9.0122 H         1 <0>         0.1183
     54 H22         7.0836   -0.3861   -9.2218 H         1 <0>         0.1174
     55 H23         6.2387    0.9185   -7.2954 H         1 <0>         0.1193
     56 H24         5.4907    0.9517   -4.8761 H         1 <0>         0.1008
     57 H25         7.8355   -3.4488   -2.5288 H         1 <0>         0.1205
     58 H26         9.0186   -1.8708   -1.0332 H         1 <0>         0.1147
     59 H27         8.6467    0.5471   -1.2424 H         1 <0>         0.1140
     60 H28         7.0891    1.4230   -2.9500 H         1 <0>         0.1181
     61 H29        -2.0182   -0.0956   -0.7811 H         1 <0>         0.1070
     62 H30        -1.4993   -1.5672    0.0753 H         1 <0>         0.0820
     63 H31        -1.9226   -0.1041    0.9963 H         1 <0>         0.0811
     64 H32         0.3407   -1.4720    1.3509 H         1 <0>         0.4228
@<TRIPOS>BOND
     1    1    2 1
     2    1   35 1
     3    1   36 1
     4    1   37 1
     5    2    7 1
     6    2    3 1
     7    2   34 1
     8    3    4 1
     9    3   38 1
    10    3   39 1
    11    4    5 1
    12    4   10 1
    13    4   40 1
    14    5    6 1
    15    5   41 1
    16    5   42 1
    17    6    7 1
    18    6    8 1
    19    6    9 1
    20    7   43 1
    21    7   64 1
    22    8   44 1
    23    8   45 1
    24    8   46 1
    25    9   47 1
    26    9   48 1
    27    9   49 1
    28   10   11 am
    29   10   50 1
    30   11   12 2
    31   11   13 1
    32   13   14 1
    33   13   24 1
    34   13   15 1
    35   15   16 1
    36   15   17 1
    37   15   31 1
    38   17   26 1
    39   17   18 1
    40   17   51 1
    41   18   23 ar
    42   18   19 ar
    43   19   20 ar
    44   19   52 1
    45   20   21 ar
    46   20   53 1
    47   21   22 ar
    48   21   54 1
    49   22   23 ar
    50   22   55 1
    51   23   24 1
    52   24   25 1
    53   24   56 1
    54   25   30 ar
    55   25   26 ar
    56   26   27 ar
    57   27   28 ar
    58   27   57 1
    59   28   29 ar
    60   28   58 1
    61   29   30 ar
    62   29   59 1
    63   30   60 1
    64   31   32 2
    65   31   33 1
    66   34   61 1
    67   34   62 1
    68   34   63 1
@<TRIPOS>MOLECULE
ZINC01501017
   35    36     0     0     0
SMALL
USER_CHARGES

@<TRIPOS>ATOM
      1 C1         -0.0168    1.3848    0.0097 C.ar      1 <0>        -0.1847
      2 C2          1.1705    2.0902    0.0021 C.ar      1 <0>        -0.0397
      3 C3          2.3780    1.4148   -0.0135 C.ar      1 <0>        -0.1475
      4 C4          2.3999    0.0314   -0.0211 C.ar      1 <0>        -0.0402
      5 C5          1.2158   -0.6794   -0.0137 C.ar      1 <0>        -0.1963
      6 C6          0.0021   -0.0041    0.0020 C.ar      1 <0>         0.2326
      7 N1         -1.1975   -0.7204    0.0101 N.pl3     1 <0>        -0.7328
      8 C7         -1.1760   -2.1853    0.0020 C.3       1 <0>         0.1111
      9 C8         -2.5892   -2.7085    0.0132 C.2       1 <0>         0.5281
     10 O1         -3.5227   -1.9338    0.0267 O.2       1 <0>        -0.4904
     11 N2         -2.8160   -4.0370    0.0084 N.am      1 <0>        -0.5839
     12 N3         -4.1298   -4.5234    0.0188 N.2       1 <0>        -0.2011
     13 C9         -4.3482   -5.8029    0.0141 C.2       1 <0>         0.1069
     14 C10        -5.7302   -6.3145    0.0251 C.ar      1 <0>        -0.0819
     15 C11        -5.9696   -7.6906    0.0259 C.ar      1 <0>        -0.0449
     16 C12        -7.2659   -8.1630    0.0367 C.ar      1 <0>        -0.1081
     17 C13        -8.3314   -7.2777    0.0463 C.ar      1 <0>        -0.0559
     18 C14        -8.1069   -5.9140    0.0451 C.ar      1 <0>        -0.1458
     19 C15        -6.8115   -5.4231    0.0406 C.ar      1 <0>         0.1648
     20 O2         -6.5903   -4.0830    0.0452 O.3       1 <0>        -0.4702
     21 Br1        -7.5895  -10.0261    0.0378 Br        1 <0>        -0.0388
     22 Br2         4.0015    2.3843   -0.0251 Br        1 <0>        -0.0587
     23 H1         -0.9589    1.9125    0.0260 H         1 <0>         0.1316
     24 H2          1.1565    3.1701    0.0080 H         1 <0>         0.1333
     25 H3          3.3439   -0.4932   -0.0333 H         1 <0>         0.1321
     26 H4          1.2335   -1.7592   -0.0203 H         1 <0>         0.1287
     27 H5         -2.0445   -0.2479    0.0210 H         1 <0>         0.4149
     28 H6         -0.6657   -2.5362   -0.8950 H         1 <0>         0.0983
     29 H7         -0.6481   -2.5457    0.8849 H         1 <0>         0.0982
     30 H8         -2.0696   -4.6564   -0.0024 H         1 <0>         0.3884
     31 H9         -3.5171   -6.4925    0.0022 H         1 <0>         0.1260
     32 H10        -5.1413   -8.3837    0.0178 H         1 <0>         0.1433
     33 H11        -9.3432   -7.6553    0.0543 H         1 <0>         0.1413
     34 H12        -8.9426   -5.2300    0.0522 H         1 <0>         0.1442
     35 H13        -6.5352   -3.6905   -0.8369 H         1 <0>         0.3973
@<TRIPOS>BOND
     1    1    6 ar
     2    1    2 ar
     3    1   23 1
     4    2    3 ar
     5    2   24 1
     6    3    4 ar
     7    3   22 1
     8    4    5 ar
     9    4   25 1
    10    5    6 ar
    11    5   26 1
    12    6    7 1
    13    7    8 1
    14    7   27 1
    15    8    9 1
    16    8   28 1
    17    8   29 1
    18    9   10 2
    19    9   11 am
    20   11   12 1
    21   11   30 1
    22   12   13 2
    23   13   14 1
    24   13   31 1
    25   14   19 ar
    26   14   15 ar
    27   15   16 ar
    28   15   32 1
    29   16   17 ar
    30   16   21 1
    31   17   18 ar
    32   17   33 1
    33   18   19 ar
    34   18   34 1
    35   19   20 1
    36   20   35 1
@<TRIPOS>MOLECULE
ZINC09885466
   45    47     0     0     0
SMALL
USER_CHARGES
4-fluoro-N-[4-(2-thienylcarbonylaminocarbamoylmethyl)phenyl]-benzenesulfonamide
@<TRIPOS>ATOM
      1 C1          4.8331    2.2397  -12.8779 C.2       1 <0>        -0.1805
      2 C2          5.6331    1.6609  -11.9244 C.2       1 <0>        -0.0563
      3 C3          5.0085    1.1760  -10.7860 C.2       1 <0>        -0.2463
      4 S1          3.2994    1.5734  -11.1083 S.3       1 <0>         0.1496
      5 C4          3.4938    2.3182  -12.6616 C.2       1 <0>        -0.1715
      6 C5          5.5992    0.5149   -9.6186 C.2       1 <0>         0.6105
      7 O1          6.8002    0.3244   -9.5701 O.2       1 <0>        -0.5241
      8 N1          4.8122    0.1179   -8.5990 N.am      1 <0>        -0.5194
      9 N2          5.3767   -0.5140   -7.4833 N.am      1 <0>        -0.5212
     10 C6          4.5896   -0.9109   -6.4638 C.2       1 <0>         0.5158
     11 O2          3.3928   -0.7211   -6.5121 O.2       1 <0>        -0.5238
     12 C7          5.1969   -1.5906   -5.2636 C.3       1 <0>        -0.0922
     13 C8          4.1107   -1.9304   -4.2757 C.ar      1 <0>        -0.0618
     14 C9          3.4659   -3.1513   -4.3522 C.ar      1 <0>        -0.0927
     15 C10         2.4704   -3.4661   -3.4483 C.ar      1 <0>        -0.1011
     16 C11         2.1171   -2.5546   -2.4613 C.ar      1 <0>         0.1229
     17 C12         2.7632   -1.3270   -2.3906 C.ar      1 <0>        -0.1088
     18 C13         3.7614   -1.0207   -3.2945 C.ar      1 <0>        -0.0955
     19 N3          1.1104   -2.8695   -1.5458 N.pl3     1 <0>        -1.0617
     20 S2          1.4064   -3.9548   -0.3304 S.o2      1 <0>         2.6919
     21 O3          1.9700   -5.1066   -0.9428 O.2       1 <0>        -0.9436
     22 O4          0.2263   -4.0121    0.4591 O.2       1 <0>        -0.9493
     23 C14         2.6632   -3.2621    0.6919 C.ar      1 <0>        -0.6910
     24 C15         2.3248   -2.3769    1.6985 C.ar      1 <0>         0.0118
     25 C16         3.3097   -1.8329    2.5009 C.ar      1 <0>        -0.1753
     26 C17         4.6358   -2.1745    2.2962 C.ar      1 <0>         0.1597
     27 C18         4.9735   -3.0608    1.2875 C.ar      1 <0>        -0.1740
     28 C19         3.9869   -3.6038    0.4866 C.ar      1 <0>         0.0150
     29 F1          5.5995   -1.6430    3.0798 F         1 <0>        -0.1276
     30 H1          5.2635    2.6321  -13.7874 H         1 <0>         0.1454
     31 H2          6.7022    1.5843  -12.0567 H         1 <0>         0.1511
     32 H3          2.7346    2.7421  -13.3021 H         1 <0>         0.1945
     33 H4          3.8549    0.2698   -8.6377 H         1 <0>         0.4322
     34 H5          6.3339   -0.6658   -7.4446 H         1 <0>         0.4346
     35 H6          5.9189   -0.9224   -4.7942 H         1 <0>         0.1144
     36 H7          5.6996   -2.5047   -5.5795 H         1 <0>         0.1154
     37 H8          3.7414   -3.8597   -5.1196 H         1 <0>         0.1308
     38 H9          1.9675   -4.4199   -3.5083 H         1 <0>         0.1382
     39 H10         2.4878   -0.6143   -1.6273 H         1 <0>         0.1298
     40 H11         4.2670   -0.0681   -3.2376 H         1 <0>         0.1281
     41 H12         0.2379   -2.4525   -1.6218 H         1 <0>         0.4274
     42 H13         1.2904   -2.1106    1.8580 H         1 <0>         0.1501
     43 H14         3.0456   -1.1382    3.2846 H         1 <0>         0.1479
     44 H15         6.0076   -3.3276    1.1267 H         1 <0>         0.1479
     45 H16         4.2500   -4.2957   -0.2998 H         1 <0>         0.1523
@<TRIPOS>BOND
     1    1    5 2
     2    1    2 1
     3    1   30 1
     4    2    3 2
     5    2   31 1
     6    3    4 1
     7    3    6 1
     8    4    5 1
     9    5   32 1
    10    6    7 2
    11    6    8 am
    12    8    9 1
    13    8   33 1
    14    9   10 am
    15    9   34 1
    16   10   11 2
    17   10   12 1
    18   12   13 1
    19   12   35 1
    20   12   36 1
    21   13   18 ar
    22   13   14 ar
    23   14   15 ar
    24   14   37 1
    25   15   16 ar
    26   15   38 1
    27   16   17 ar
    28   16   19 1
    29   17   18 ar
    30   17   39 1
    31   18   40 1
    32   19   20 1
    33   19   41 1
    34   20   21 2
    35   20   22 2
    36   20   23 1
    37   23   28 ar
    38   23   24 ar
    39   24   25 ar
    40   24   42 1
    41   25   26 ar
    42   25   43 1
    43   26   27 ar
    44   26   29 1
    45   27   28 ar
    46   27   44 1
    47   28   45 1
@<TRIPOS>MOLECULE
ZINC21317821
   38    40     0     0     0
SMALL
USER_CHARGES
2-[[4-amino-5-((N'E)-N'-(2-thienylmethylene)hydrazino)-1,2,4-triazol-3-yl]sulfanyl]-1-(4-bromophenyl)ethanone
@<TRIPOS>ATOM
      1 C1         -2.3615   -6.7671   -0.0116 C.2       1 <0>        -0.1651
      2 C2         -2.7756   -5.4546    0.0003 C.2       1 <0>        -0.1183
      3 C3         -1.8121   -4.4613   -0.0039 C.2       1 <0>        -0.1294
      4 S1         -0.3032   -5.4154   -0.0319 S.3       1 <0>         0.1164
      5 C4         -1.0323   -7.0446   -0.0270 C.2       1 <0>        -0.1726
      6 C5         -1.9852   -3.0047    0.0056 C.2       1 <0>         0.1338
      7 N1         -0.9432   -2.2257   -0.0005 N.2       1 <0>        -0.1894
      8 N2         -1.1086   -0.8345    0.0086 N.pl3     1 <0>        -0.5577
      9 C6          0.0021   -0.0041    0.0020 C.2       1 <0>         0.4868
     10 N3          1.2545   -0.3921   -0.0120 N.2       1 <0>        -0.3103
     11 N4          2.0623    0.7526   -0.0136 N.2       1 <0>        -0.3026
     12 C7          1.2769    1.8030   -0.0005 C.2       1 <0>         0.1779
     13 N5         -0.0165    1.3632    0.0095 N.pl3     1 <0>        -0.2621
     14 N6         -1.1324    2.1510    0.0194 N.3       1 <0>        -0.7776
     15 S2          1.7985    3.4860    0.0036 S.3       1 <0>         0.0515
     16 C8          3.6095    3.3843   -0.0142 C.3       1 <0>        -0.1687
     17 C9          4.1908    4.7746   -0.0123 C.2       1 <0>         0.4206
     18 O1          3.4558    5.7391   -0.0001 O.2       1 <0>        -0.4283
     19 C10         5.6499    4.9619   -0.0252 C.ar      1 <0>        -0.1511
     20 C11         6.5009    3.8517   -0.0335 C.ar      1 <0>        -0.0640
     21 C12         7.8669    4.0349   -0.0524 C.ar      1 <0>        -0.1020
     22 C13         8.3976    5.3145   -0.0501 C.ar      1 <0>        -0.0587
     23 C14         7.5611    6.4186   -0.0357 C.ar      1 <0>        -0.1027
     24 C15         6.1931    6.2510   -0.0235 C.ar      1 <0>        -0.0495
     25 Br1        10.2731    5.5552   -0.0674 Br        1 <0>        -0.0357
     26 H1         -3.0861   -7.5679   -0.0084 H         1 <0>         0.1382
     27 H2         -3.8266   -5.2060    0.0123 H         1 <0>         0.1393
     28 H3         -0.5413   -8.0065   -0.0380 H         1 <0>         0.1887
     29 H4         -2.9960   -2.5711    0.0179 H         1 <0>         0.1398
     30 H5         -2.1195   -0.4009    0.0210 H         1 <0>         0.4117
     31 H6         -1.0323    3.2464    0.0248 H         1 <0>         0.4497
     32 H7         -2.1311    1.6900    0.0219 H         1 <0>         0.4370
     33 H8          3.9550    2.8412    0.8778 H         1 <0>         0.1377
     34 H9          3.9379    2.8508   -0.9184 H         1 <0>         0.1377
     35 H10         6.0886    2.8535   -0.0304 H         1 <0>         0.1459
     36 H11         8.5251    3.1788   -0.0644 H         1 <0>         0.1436
     37 H12         7.9819    7.4133   -0.0344 H         1 <0>         0.1429
     38 H13         5.5421    7.1127   -0.0130 H         1 <0>         0.1463
@<TRIPOS>BOND
     1    1    5 2
     2    1    2 1
     3    1   26 1
     4    2    3 2
     5    2   27 1
     6    3    4 1
     7    3    6 1
     8    4    5 1
     9    5   28 1
    10    6    7 2
    11    6   29 1
    12    7    8 1
    13    8    9 1
    14    8   30 1
    15    9   13 1
    16    9   10 2
    17   10   11 1
    18   11   12 2
    19   12   13 1
    20   12   15 1
    21   13   14 1
    22   14   31 1
    23   14   32 1
    24   15   16 1
    25   16   17 1
    26   16   33 1
    27   16   34 1
    28   17   18 2
    29   17   19 1
    30   19   24 ar
    31   19   20 ar
    32   20   21 ar
    33   20   35 1
    34   21   22 ar
    35   21   36 1
    36   22   23 ar
    37   22   25 1
    38   23   24 ar
    39   23   37 1
    40   24   38 1
@<TRIPOS>MOLECULE
ZINC35388170
   63    66     0     0     0
SMALL
USER_CHARGES

@<TRIPOS>ATOM
      1 C1          1.3122    0.1742   -1.8583 C.3       1 <0>        -0.1474
      2 C2          1.0895   -1.2816   -1.4436 C.3       1 <0>        -0.0984
      3 C3          1.6861   -1.5130   -0.0538 C.3       1 <0>        -0.1387
      4 C4         -0.4110   -1.5786   -1.4103 C.3       1 <0>         0.1950
      5 H1         -0.8963   -0.9179   -0.6920 H         1 <0>         0.1004
      6 C5         -0.9987   -1.3507   -2.7792 C.ar      1 <0>        -0.0798
      7 C6         -0.8678   -2.3210   -3.7554 C.ar      1 <0>        -0.1069
      8 C7         -1.4050   -2.1190   -5.0142 C.ar      1 <0>        -0.1110
      9 C8         -2.0756   -0.9402   -5.2931 C.ar      1 <0>         0.0675
     10 C9         -2.2071    0.0335   -4.3133 C.ar      1 <0>         0.0720
     11 C10        -1.6722   -0.1738   -3.0531 C.ar      1 <0>        -0.1012
     12 O1         -2.8708    1.1914   -4.5981 O.3       1 <0>        -0.3182
     13 C11        -2.2303    2.0658   -5.5295 C.3       1 <0>         0.0602
     14 C12        -2.5524    1.6605   -6.9592 C.3       1 <0>        -0.1889
     15 C13        -1.9907    0.2926   -7.3137 C.3       1 <0>         0.0603
     16 O2         -2.6115   -0.7287   -6.5302 O.3       1 <0>        -0.3194
     17 N1         -0.6242   -2.9726   -1.0132 N.am      1 <0>        -0.7290
     18 C14        -0.6611   -3.3031    0.2929 C.2       1 <0>         0.5225
     19 O3         -0.5178   -2.4465    1.1394 O.2       1 <0>        -0.5064
     20 C15        -0.8805   -4.7370    0.7014 C.3       1 <0>         0.0214
     21 N2         -0.8791   -4.8343    2.1671 N.3       1 <0>        -0.4881
     22 C16         0.4771   -4.6797    2.7028 C.3       1 <0>         0.0939
     23 C17         0.4800   -4.8785    4.1958 C.ar      1 <0>        -0.0734
     24 C18         1.5683   -4.4160    4.9214 C.ar      1 <0>        -0.1120
     25 C19         1.6146   -4.5802    6.2910 C.ar      1 <0>        -0.1190
     26 C20         0.5715   -5.2097    6.9447 C.ar      1 <0>        -0.1184
     27 C21        -0.5127   -5.6691    6.2244 C.ar      1 <0>        -0.1175
     28 C22        -0.5614   -5.5023    4.8485 C.ar      1 <0>        -0.0696
     29 C23        -1.7701   -6.0101    4.1051 C.3       1 <0>        -0.0627
     30 C24        -1.4598   -6.1114    2.6115 C.3       1 <0>         0.0668
     31 H2         -0.7465   -6.9175    2.4395 H         1 <0>         0.0681
     32 C25        -2.7302   -6.3828    1.8477 C.2       1 <0>         0.5173
     33 O4         -3.4507   -5.4629    1.5227 O.2       1 <0>        -0.5150
     34 N3         -3.0658   -7.6478    1.5257 N.am      1 <0>        -0.8535
     35 H3          2.3812    0.3857   -1.8820 H         1 <0>         0.0586
     36 H4          0.8872    0.3390   -2.8484 H         1 <0>         0.0557
     37 H5          0.8269    0.8349   -1.1399 H         1 <0>         0.0583
     38 H6          1.5748   -1.9424   -2.1619 H         1 <0>         0.0712
     39 H7          1.2008   -0.8523    0.6645 H         1 <0>         0.0660
     40 H8          1.5275   -2.5501    0.2416 H         1 <0>         0.0511
     41 H9          2.7551   -1.3014   -0.0775 H         1 <0>         0.0483
     42 H10        -0.3443   -3.2394   -3.5346 H         1 <0>         0.1295
     43 H11        -1.3013   -2.8773   -5.7761 H         1 <0>         0.1372
     44 H12        -1.7772    0.5816   -2.2884 H         1 <0>         0.1375
     45 H13        -2.5750    3.0858   -5.3594 H         1 <0>         0.1061
     46 H14        -1.1516    2.0226   -5.3787 H         1 <0>         0.0578
     47 H15        -3.6349    1.6412   -7.0854 H         1 <0>         0.0851
     48 H16        -2.1327    2.4016   -7.6394 H         1 <0>         0.0922
     49 H17        -2.1707    0.0936   -8.3701 H         1 <0>         0.1055
     50 H18        -0.9170    0.2860   -7.1259 H         1 <0>         0.0576
     51 H19        -0.7389   -3.6576   -1.6903 H         1 <0>         0.3974
     52 H20        -1.8396   -5.0821    0.3152 H         1 <0>         0.1173
     53 H21        -0.0810   -5.3568    0.2954 H         1 <0>         0.0638
     54 H22         1.1335   -5.4166    2.2399 H         1 <0>         0.0467
     55 H23         0.8439   -3.6796    2.4718 H         1 <0>         0.1080
     56 H24         2.3840   -3.9249    4.4116 H         1 <0>         0.1222
     57 H25         2.4642   -4.2181    6.8509 H         1 <0>         0.1231
     58 H26         0.6050   -5.3419    8.0160 H         1 <0>         0.1229
     59 H27        -1.3273   -6.1613    6.7350 H         1 <0>         0.1224
     60 H28        -2.0419   -6.9946    4.4858 H         1 <0>         0.0849
     61 H29        -2.6028   -5.3230    4.2560 H         1 <0>         0.0945
     62 H30        -2.4895   -8.3835    1.7856 H         1 <0>         0.4026
     63 H31        -3.8835   -7.8225    1.0341 H         1 <0>         0.4056
@<TRIPOS>BOND
     1    1    2 1
     2    1   35 1
     3    1   36 1
     4    1   37 1
     5    2    3 1
     6    2    4 1
     7    2   38 1
     8    3   39 1
     9    3   40 1
    10    3   41 1
    11    4    5 1
    12    4    6 1
    13    4   17 1
    14    6   11 ar
    15    6    7 ar
    16    7    8 ar
    17    7   42 1
    18    8    9 ar
    19    8   43 1
    20    9   16 1
    21    9   10 ar
    22   10   11 ar
    23   10   12 1
    24   11   44 1
    25   12   13 1
    26   13   14 1
    27   13   45 1
    28   13   46 1
    29   14   15 1
    30   14   47 1
    31   14   48 1
    32   15   16 1
    33   15   49 1
    34   15   50 1
    35   17   18 am
    36   17   51 1
    37   18   19 2
    38   18   20 1
    39   20   21 1
    40   20   52 1
    41   20   53 1
    42   21   30 1
    43   21   22 1
    44   22   23 1
    45   22   54 1
    46   22   55 1
    47   23   28 ar
    48   23   24 ar
    49   24   25 ar
    50   24   56 1
    51   25   26 ar
    52   25   57 1
    53   26   27 ar
    54   26   58 1
    55   27   28 ar
    56   27   59 1
    57   28   29 1
    58   29   30 1
    59   29   60 1
    60   29   61 1
    61   30   31 1
    62   30   32 1
    63   32   33 2
    64   32   34 am
    65   34   62 1
    66   34   63 1
@<TRIPOS>MOLECULE
ZINC46541816
   51    53     0     0     0
SMALL
USER_CHARGES

@<TRIPOS>ATOM
      1 C1         -0.2837    1.0093   -0.0431 C.3       1 <0>        -0.1599
      2 C2         -0.8906   -0.2984    0.4690 C.3       1 <0>         0.1753
      3 H1         -0.8278   -1.0579   -0.3104 H         1 <0>         0.1048
      4 C3         -2.3349   -0.0725    0.8350 C.ar      1 <0>        -0.0333
      5 C4         -2.6578    0.5164    2.0432 C.ar      1 <0>        -0.1365
      6 C5         -3.9827    0.7236    2.3790 C.ar      1 <0>        -0.0113
      7 C6         -4.9846    0.3423    1.5063 C.ar      1 <0>        -0.6753
      8 C7         -4.6617   -0.2458    0.2976 C.ar      1 <0>        -0.0121
      9 C8         -3.3367   -0.4491   -0.0399 C.ar      1 <0>        -0.1279
     10 S1         -6.6734    0.6054    1.9347 S.o2      1 <0>         2.7010
     11 O1         -7.4331   -0.3349    1.1878 O.2       1 <0>        -0.9615
     12 O2         -6.7267    0.6731    3.3531 O.2       1 <0>        -0.9612
     13 N1         -7.0930    2.1058    1.3732 N.pl3     1 <0>        -1.2495
     14 N2         -0.1521   -0.7496    1.6511 N.am      1 <0>        -0.7275
     15 C9          0.9720   -1.4788    1.5057 C.2       1 <0>         0.5261
     16 O3          1.3722   -1.7615    0.3962 O.2       1 <0>        -0.5270
     17 C10         1.7317   -1.9429    2.7216 C.3       1 <0>        -0.1238
     18 H2          1.0871   -2.5727    3.3349 H         1 <0>         0.1049
     19 C11         2.9595   -2.7436    2.2820 C.3       1 <0>        -0.1006
     20 C12         3.7137   -3.2432    3.5164 C.3       1 <0>        -0.1341
     21 C13         4.1892   -2.0422    4.3401 C.3       1 <0>         0.0931
     22 N3          3.0320   -1.1893    4.6440 N.am      1 <0>        -0.6046
     23 C14         2.1840   -0.7272    3.5367 C.3       1 <0>         0.1253
     24 C15         2.7532   -0.8376    5.9149 C.2       1 <0>         0.6096
     25 O4          1.8283   -0.0818    6.1481 O.2       1 <0>        -0.5216
     26 C16         3.5638   -1.3656    7.0161 C.2       1 <0>        -0.2586
     27 C17         3.1618   -1.7795    8.2769 C.2       1 <0>        -0.0709
     28 C18         4.1619   -2.2320    9.1038 C.2       1 <0>        -0.1808
     29 C19         5.4389   -2.2443    8.6479 C.2       1 <0>        -0.2337
     30 S2          5.3225   -1.6501    7.0809 S.3       1 <0>         0.2185
     31 H3          0.7610    0.8459   -0.3078 H         1 <0>         0.0709
     32 H4         -0.8331    1.3450   -0.9226 H         1 <0>         0.0712
     33 H5         -0.3465    1.7688    0.7363 H         1 <0>         0.0627
     34 H6         -1.8750    0.8143    2.7250 H         1 <0>         0.1342
     35 H7         -4.2349    1.1831    3.3232 H         1 <0>         0.1468
     36 H8         -5.4445   -0.5439   -0.3840 H         1 <0>         0.1471
     37 H9         -3.0843   -0.9051   -0.9858 H         1 <0>         0.1387
     38 H10        -6.4389    2.6494    0.9067 H         1 <0>         0.4169
     39 H11        -7.9928    2.4409    1.5107 H         1 <0>         0.4221
     40 H12        -0.4722   -0.5235    2.5384 H         1 <0>         0.4025
     41 H13         2.6414   -3.5957    1.6813 H         1 <0>         0.0790
     42 H14         3.6155   -2.1062    1.6890 H         1 <0>         0.0763
     43 H15         3.0507   -3.8605    4.1226 H         1 <0>         0.0713
     44 H16         4.5749   -3.8330    3.2026 H         1 <0>         0.0871
     45 H17         4.6396   -2.3916    5.2691 H         1 <0>         0.0911
     46 H18         4.9219   -1.4735    3.7675 H         1 <0>         0.0809
     47 H19         2.7530   -0.0508    2.8989 H         1 <0>         0.0793
     48 H20         1.3116   -0.2095    3.9354 H         1 <0>         0.0990
     49 H21         2.1285   -1.7481    8.5894 H         1 <0>         0.1477
     50 H22         3.9340   -2.5726   10.1030 H         1 <0>         0.1390
     51 H23         6.3270   -2.5670    9.1709 H         1 <0>         0.1891
@<TRIPOS>BOND
     1    1    2 1
     2    1   31 1
     3    1   32 1
     4    1   33 1
     5    2    3 1
     6    2    4 1
     7    2   14 1
     8    4    9 ar
     9    4    5 ar
    10    5    6 ar
    11    5   34 1
    12    6    7 ar
    13    6   35 1
    14    7    8 ar
    15    7   10 1
    16    8    9 ar
    17    8   36 1
    18    9   37 1
    19   10   11 2
    20   10   12 2
    21   10   13 1
    22   13   38 1
    23   13   39 1
    24   14   15 am
    25   14   40 1
    26   15   16 2
    27   15   17 1
    28   17   18 1
    29   17   23 1
    30   17   19 1
    31   19   20 1
    32   19   41 1
    33   19   42 1
    34   20   21 1
    35   20   43 1
    36   20   44 1
    37   21   22 1
    38   21   45 1
    39   21   46 1
    40   22   23 1
    41   22   24 am
    42   23   47 1
    43   23   48 1
    44   24   25 2
    45   24   26 1
    46   26   30 1
    47   26   27 2
    48   27   28 1
    49   27   49 1
    50   28   29 2
    51   28   50 1
    52   29   30 1
    53   29   51 1
@<TRIPOS>MOLECULE
ZINC08442117
   47    51     0     0     0
SMALL
USER_CHARGES

@<TRIPOS>ATOM
      1 C1         -0.0184    1.5028    0.0103 C.3       1 <0>        -0.1159
      2 C2          0.0021   -0.0041    0.0020 C.ar      1 <0>        -0.0895
      3 C3          0.0057   -0.6873   -1.2005 C.ar      1 <0>        -0.1000
      4 C4          0.0239   -2.0679   -1.2119 C.ar      1 <0>        -0.0930
      5 C5          0.0391   -2.7710   -0.0132 C.ar      1 <0>        -0.0946
      6 C6          0.0359   -2.0810    1.1932 C.ar      1 <0>        -0.1303
      7 C7          0.0229   -0.7003    1.1969 C.ar      1 <0>        -0.0993
      8 S1          0.0619   -4.5328   -0.0229 S.3       1 <0>        -0.0650
      9 C8          0.0766   -4.9812    1.7348 C.3       1 <0>        -0.0480
     10 C9          0.0967   -6.4819    1.8702 C.2       1 <0>         0.1376
     11 C10        -1.0161   -7.3082    1.9436 C.2       1 <0>        -0.2450
     12 C11        -0.5775   -8.5998    2.0593 C.2       1 <0>         0.2955
     13 N1          0.7645   -8.5733    2.0584 N.pl3     1 <0>        -0.4310
     14 H1          1.3508   -9.3430    2.1278 H         1 <0>         0.4537
     15 N2          1.1690   -7.2350    1.9335 N.2       1 <0>        -0.2323
     16 O1         -1.4261   -9.6533    2.1521 O.3       1 <0>        -0.2244
     17 C12        -2.7265   -9.4448    1.8627 C.2       1 <0>         0.4584
     18 C13        -3.2799   -8.2159    1.7353 C.2       1 <0>        -0.2503
     19 C14        -2.4767   -6.9569    1.9118 C.3       1 <0>         0.1241
     20 C15        -2.8853   -6.2202    3.1469 C.ar      1 <0>        -0.1117
     21 C16        -2.8657   -6.5824    4.4767 C.ar      1 <0>        -0.0752
     22 C17        -3.3250   -5.6412    5.3945 C.ar      1 <0>         0.0726
     23 C18        -3.7790   -4.4015    4.9862 C.ar      1 <0>        -0.1138
     24 C19        -3.8016   -4.0324    3.6504 C.ar      1 <0>        -0.1114
     25 C20        -3.3441   -4.9675    2.7209 C.ar      1 <0>         0.1439
     26 N3         -3.2583   -4.8670    1.3423 N.am      1 <0>        -0.6602
     27 C21        -2.7606   -5.9904    0.7834 C.2       1 <0>         0.5406
     28 O2         -2.5760   -6.1874   -0.3991 O.2       1 <0>        -0.4524
     29 F1         -3.3272   -5.9465    6.7106 F         1 <0>        -0.1378
     30 C22        -4.6736   -8.1117    1.4231 C.1       1 <0>         0.2643
     31 N4         -5.7791   -8.0290    1.1754 N.1       1 <0>        -0.4204
     32 N5         -3.5346  -10.5405    1.6869 N.pl3     1 <0>        -0.8212
     33 H2          1.0042    1.8801    0.0026 H         1 <0>         0.0716
     34 H3         -0.5455    1.8639   -0.8728 H         1 <0>         0.0675
     35 H4         -0.5286    1.8543    0.9071 H         1 <0>         0.0669
     36 H5         -0.0061   -0.1403   -2.1316 H         1 <0>         0.1279
     37 H6          0.0260   -2.6008   -2.1513 H         1 <0>         0.1280
     38 H7          0.0477   -2.6241    2.1266 H         1 <0>         0.1209
     39 H8          0.0244   -0.1634    2.1339 H         1 <0>         0.1256
     40 H9          0.9637   -4.5616    2.2093 H         1 <0>         0.1140
     41 H10        -0.8161   -4.5846    2.2184 H         1 <0>         0.1091
     42 H11        -2.5100   -7.5520    4.7924 H         1 <0>         0.1453
     43 H12        -4.1267   -3.6997    5.7298 H         1 <0>         0.1423
     44 H13        -4.1583   -3.0609    3.3416 H         1 <0>         0.1472
     45 H14        -3.5241   -4.0822    0.8380 H         1 <0>         0.4192
     46 H15        -3.1660  -11.4337    1.7718 H         1 <0>         0.4156
     47 H16        -4.4744  -10.4215    1.4779 H         1 <0>         0.4308
@<TRIPOS>BOND
     1    1    2 1
     2    1   33 1
     3    1   34 1
     4    1   35 1
     5    2    7 ar
     6    2    3 ar
     7    3    4 ar
     8    3   36 1
     9    4    5 ar
    10    4   37 1
    11    5    6 ar
    12    5    8 1
    13    6    7 ar
    14    6   38 1
    15    7   39 1
    16    8    9 1
    17    9   10 1
    18    9   40 1
    19    9   41 1
    20   10   15 2
    21   10   11 1
    22   11   19 1
    23   11   12 2
    24   12   13 1
    25   12   16 1
    26   13   14 1
    27   13   15 1
    28   16   17 1
    29   17   18 2
    30   17   32 1
    31   18   19 1
    32   18   30 1
    33   19   27 1
    34   19   20 1
    35   20   25 ar
    36   20   21 ar
    37   21   22 ar
    38   21   42 1
    39   22   23 ar
    40   22   29 1
    41   23   24 ar
    42   23   43 1
    43   24   25 ar
    44   24   44 1
    45   25   26 1
    46   26   27 am
    47   26   45 1
    48   27   28 2
    49   30   31 3
    50   32   46 1
    51   32   47 1
@<TRIPOS>MOLECULE
ZINC39596349
   69    73     0     0     0
SMALL
USER_CHARGES

@<TRIPOS>ATOM
      1 C1         -0.3798    1.5202   -3.9890 C.3       1 <0>        -0.1847
      2 C2         -0.7036    0.0405   -3.7734 C.3       1 <0>         0.0726
      3 H1         -0.7128   -0.4732   -4.7347 H         1 <0>         0.0786
      4 C3          0.3590   -0.5876   -2.8695 C.3       1 <0>         0.1213
      5 N1          0.1169   -2.0283   -2.7595 N.am      1 <0>        -0.7247
      6 C4          0.9336   -2.7935   -2.0085 C.2       1 <0>         0.5212
      7 O1          1.8689   -2.2893   -1.4237 O.2       1 <0>        -0.5176
      8 C5          0.6846   -4.2754   -1.8954 C.3       1 <0>        -0.1133
      9 H2         -0.3803   -4.4887   -1.9878 H         1 <0>         0.1153
     10 C6          1.2259   -4.8108   -0.5508 C.3       1 <0>         0.1006
     11 N2          1.7785   -6.1470   -0.8751 N.am      1 <0>        -0.6217
     12 C7          2.4305   -5.9661   -2.1943 C.3       1 <0>         0.1113
     13 C8          1.4783   -5.0354   -2.9714 C.3       1 <0>        -0.0730
     14 C9          2.2786   -4.0580   -3.8268 C.3       1 <0>        -0.1471
     15 C10         3.0129   -4.8312   -4.9258 C.3       1 <0>        -0.0081
     16 N3          2.0389   -5.5530   -5.7534 N.4       1 <0>        -0.5047
     17 C11         1.3386   -6.5562   -4.9422 C.3       1 <0>        -0.0115
     18 C12         0.5334   -5.8559   -3.8440 C.3       1 <0>        -0.1349
     19 C13         1.7047   -7.2727   -0.1376 C.2       1 <0>         0.5536
     20 O2          2.2122   -8.2972   -0.5423 O.2       1 <0>        -0.4946
     21 C14         0.9915   -7.2583    1.1899 C.3       1 <0>         0.0387
     22 H3         -0.0251   -6.8885    1.0569 H         1 <0>         0.1112
     23 C15         1.7467   -6.3540    2.1733 C.3       1 <0>         0.0324
     24 O3          1.0519   -6.3742    3.4250 O.3       1 <0>        -0.2963
     25 C16         0.6700   -7.5940    3.8927 C.ar      1 <0>         0.0428
     26 C17         0.3294   -7.7342    5.2299 C.ar      1 <0>        -0.1083
     27 C18        -0.0634   -8.9656    5.7189 C.ar      1 <0>        -0.1090
     28 C19        -0.1179  -10.0609    4.8770 C.ar      1 <0>        -0.1092
     29 C20         0.2216   -9.9284    3.5439 C.ar      1 <0>        -0.1073
     30 C21         0.6178   -8.6956    3.0470 C.ar      1 <0>         0.0461
     31 O4          0.9563   -8.5824    1.7334 O.3       1 <0>        -0.2802
     32 O5         -1.9866   -0.0812   -3.1560 O.3       1 <0>        -0.3043
     33 C22        -3.0708   -0.0575   -3.9758 C.ar      1 <0>         0.1149
     34 C23        -2.9112    0.1929   -5.3307 C.ar      1 <0>        -0.1842
     35 C24        -4.0138    0.2167   -6.1627 C.ar      1 <0>        -0.1136
     36 C25        -5.2778   -0.0087   -5.6446 C.ar      1 <0>         0.0676
     37 C26        -5.4386   -0.2583   -4.2922 C.ar      1 <0>        -0.1106
     38 C27        -4.3370   -0.2893   -3.4591 C.ar      1 <0>        -0.1197
     39 F1         -6.3553    0.0153   -6.4592 F         1 <0>        -0.1359
     40 H4         -0.3707    2.0340   -3.0278 H         1 <0>         0.0776
     41 H5          0.5988    1.6131   -4.4600 H         1 <0>         0.0787
     42 H6         -1.1369    1.9678   -4.6330 H         1 <0>         0.0738
     43 H7          1.3469   -0.4168   -3.2971 H         1 <0>         0.0946
     44 H8          0.3082   -0.1341   -1.8796 H         1 <0>         0.0890
     45 H9         -0.6311   -2.4315   -3.2272 H         1 <0>         0.4026
     46 H10         2.0106   -4.1573   -0.1698 H         1 <0>         0.1081
     47 H11         0.4181   -4.8997    0.1756 H         1 <0>         0.0960
     48 H12         3.4076   -5.4982   -2.0747 H         1 <0>         0.0902
     49 H13         2.5262   -6.9238   -2.7059 H         1 <0>         0.0926
     50 H14         1.6022   -3.3339   -4.2812 H         1 <0>         0.0971
     51 H15         3.0038   -3.5369   -3.2019 H         1 <0>         0.1274
     52 H16         3.5724   -4.1334   -5.5488 H         1 <0>         0.1402
     53 H17         3.7012   -5.5434   -4.4707 H         1 <0>         0.1342
     54 H18         1.3688   -4.8989   -6.1293 H         1 <0>         0.4274
     55 H19         0.6638   -7.1300   -5.5774 H         1 <0>         0.1409
     56 H20         2.0667   -7.2273   -4.4867 H         1 <0>         0.1348
     57 H21         0.0281   -6.6024   -3.2312 H         1 <0>         0.1189
     58 H22        -0.2061   -5.1969   -4.2991 H         1 <0>         0.0974
     59 H23         2.7618   -6.7267    2.3102 H         1 <0>         0.0863
     60 H24         1.7776   -5.3354    1.7864 H         1 <0>         0.1249
     61 H25         0.3717   -6.8803    5.8897 H         1 <0>         0.1388
     62 H26        -0.3280   -9.0726    6.7605 H         1 <0>         0.1378
     63 H27        -0.4260  -11.0219    5.2618 H         1 <0>         0.1378
     64 H28         0.1781  -10.7856    2.8884 H         1 <0>         0.1378
     65 H29        -1.9254    0.3695   -5.7350 H         1 <0>         0.1377
     66 H30        -3.8899    0.4116   -7.2177 H         1 <0>         0.1398
     67 H31        -6.4252   -0.4337   -3.8893 H         1 <0>         0.1460
     68 H32        -4.4622   -0.4889   -2.4051 H         1 <0>         0.1425
     69 H33         2.5193   -6.0120   -6.5127 H         1 <0>         0.4352
@<TRIPOS>BOND
     1    1    2 1
     2    1   40 1
     3    1   41 1
     4    1   42 1
     5    2    3 1
     6    2    4 1
     7    2   32 1
     8    4    5 1
     9    4   43 1
    10    4   44 1
    11    5    6 am
    12    5   45 1
    13    6    7 2
    14    6    8 1
    15    8    9 1
    16    8   13 1
    17    8   10 1
    18   10   11 1
    19   10   46 1
    20   10   47 1
    21   11   12 1
    22   11   19 am
    23   12   13 1
    24   12   48 1
    25   12   49 1
    26   13   18 1
    27   13   14 1
    28   14   15 1
    29   14   50 1
    30   14   51 1
    31   15   16 1
    32   15   52 1
    33   15   53 1
    34   16   17 1
    35   16   54 1
    36   16   69 1
    37   17   18 1
    38   17   55 1
    39   17   56 1
    40   18   57 1
    41   18   58 1
    42   19   20 2
    43   19   21 1
    44   21   22 1
    45   21   31 1
    46   21   23 1
    47   23   24 1
    48   23   59 1
    49   23   60 1
    50   24   25 1
    51   25   30 ar
    52   25   26 ar
    53   26   27 ar
    54   26   61 1
    55   27   28 ar
    56   27   62 1
    57   28   29 ar
    58   28   63 1
    59   29   30 ar
    60   29   64 1
    61   30   31 1
    62   32   33 1
    63   33   38 ar
    64   33   34 ar
    65   34   35 ar
    66   34   65 1
    67   35   36 ar
    68   35   66 1
    69   36   37 ar
    70   36   39 1
    71   37   38 ar
    72   37   67 1
    73   38   68 1
@<TRIPOS>MOLECULE
ZINC39659137
   65    68     0     0     0
SMALL
USER_CHARGES

@<TRIPOS>ATOM
      1 C1          8.9647    0.2100    1.0988 C.3       1 <0>        -0.1706
      2 C2          7.5876   -0.0421    0.4816 C.3       1 <0>         0.2518
      3 O1          7.6146   -1.2591   -0.2757 O.3       1 <0>        -0.3720
      4 C3          6.6503   -2.1533    0.3156 C.3       1 <0>         0.0293
      5 C4          6.4860   -1.5926    1.7503 C.3       1 <0>         0.0337
      6 H1          7.2808   -1.9529    2.4035 H         1 <0>         0.0887
      7 O2          6.6065   -0.1675    1.5248 O.3       1 <0>        -0.3656
      8 C5          5.1106   -1.9433    2.3213 C.3       1 <0>         0.1265
      9 N1          4.9908   -1.3985    3.6759 N.am      1 <0>        -0.7269
     10 C6          3.8565   -1.5851    4.3795 C.2       1 <0>         0.5140
     11 O3          2.9349   -2.2041    3.8911 O.2       1 <0>        -0.5081
     12 C7          3.7332   -1.0246    5.7729 C.3       1 <0>        -0.1137
     13 H2          4.2727   -0.0807    5.8506 H         1 <0>         0.1197
     14 C8          2.2463   -0.8265    6.1436 C.3       1 <0>         0.1203
     15 N2          1.8754   -2.0604    6.8756 N.am      1 <0>        -0.6156
     16 C9          3.0631   -2.3660    7.7087 C.3       1 <0>         0.0905
     17 C10         4.2666   -2.0327    6.8047 C.3       1 <0>        -0.0741
     18 C11         5.3872   -1.4041    7.6273 C.3       1 <0>        -0.1352
     19 C12         5.9408   -2.4436    8.6060 C.3       1 <0>        -0.0103
     20 N3          6.4456   -3.6019    7.8587 N.4       1 <0>        -0.5051
     21 C13         5.3428   -4.2560    7.1441 C.3       1 <0>        -0.0094
     22 C14         4.7640   -3.2931    6.1035 C.3       1 <0>        -0.1488
     23 C15         0.7193   -2.7491    6.8012 C.2       1 <0>         0.5864
     24 O4         -0.1183   -2.4434    5.9746 O.2       1 <0>        -0.5039
     25 C16         0.4699   -3.8743    7.7233 C.ar      1 <0>        -0.1522
     26 C17         1.1781   -3.9660    8.9244 C.ar      1 <0>        -0.0715
     27 C18         0.9422   -5.0171    9.7822 C.ar      1 <0>        -0.1342
     28 C19         0.0014   -5.9863    9.4544 C.ar      1 <0>         0.1385
     29 C20        -0.7052   -5.8987    8.2607 C.ar      1 <0>        -0.1932
     30 C21        -0.4792   -4.8477    7.4002 C.ar      1 <0>        -0.0121
     31 O5         -0.2276   -7.0212   10.3020 O.3       1 <0>        -0.3087
     32 C22        -1.2077   -7.9816    9.9034 C.3       1 <0>         0.6047
     33 F1         -0.8222   -8.5660    8.6921 F         1 <0>        -0.1618
     34 F2         -1.3164   -8.9721   10.8853 F         1 <0>        -0.1237
     35 F3         -2.4440   -7.3470    9.7423 F         1 <0>        -0.1591
     36 C23         7.2149    1.1233   -0.4371 C.3       1 <0>        -0.1583
     37 H3          9.2306   -0.6248    1.7472 H         1 <0>         0.0595
     38 H4          9.7064    0.3047    0.3058 H         1 <0>         0.0798
     39 H5          8.9381    1.1298    1.6831 H         1 <0>         0.0777
     40 H6          5.7046   -2.1119   -0.2248 H         1 <0>         0.0836
     41 H7          7.0357   -3.1725    0.3421 H         1 <0>         0.1048
     42 H8          4.3341   -1.5151    1.6874 H         1 <0>         0.0859
     43 H9          4.9963   -3.0268    2.3541 H         1 <0>         0.0894
     44 H10         5.7278   -0.9034    4.0665 H         1 <0>         0.4021
     45 H11         2.1277    0.0464    6.7855 H         1 <0>         0.0902
     46 H12         1.6409   -0.7222    5.2432 H         1 <0>         0.1046
     47 H13         3.0736   -1.7395    8.6006 H         1 <0>         0.0914
     48 H14         3.0740   -3.4207    7.9834 H         1 <0>         0.0930
     49 H15         6.1835   -1.0702    6.9622 H         1 <0>         0.0986
     50 H16         4.9962   -0.5524    8.1839 H         1 <0>         0.1239
     51 H17         6.7529   -2.0022    9.1836 H         1 <0>         0.1414
     52 H18         5.1479   -2.7648    9.2814 H         1 <0>         0.1327
     53 H19         7.1402   -3.2951    7.1943 H         1 <0>         0.4284
     54 H20         5.7141   -5.1505    6.6441 H         1 <0>         0.1394
     55 H21         4.5641   -4.5340    7.8543 H         1 <0>         0.1329
     56 H22         3.9336   -3.7732    5.5858 H         1 <0>         0.1226
     57 H23         5.5378   -3.0275    5.3833 H         1 <0>         0.0976
     58 H24         1.9098   -3.2136    9.1794 H         1 <0>         0.1455
     59 H25         1.4892   -5.0886   10.7107 H         1 <0>         0.1472
     60 H26        -1.4354   -6.6538    8.0096 H         1 <0>         0.1457
     61 H27        -1.0316   -4.7781    6.4748 H         1 <0>         0.1496
     62 H28         7.9633    1.2194   -1.2237 H         1 <0>         0.0817
     63 H29         6.2392    0.9352   -0.8850 H         1 <0>         0.0689
     64 H30         7.1769    2.0454    0.1429 H         1 <0>         0.0770
     65 H31         6.8647   -4.2579    8.5006 H         1 <0>         0.4348
@<TRIPOS>BOND
     1    1    2 1
     2    1   37 1
     3    1   38 1
     4    1   39 1
     5    2    7 1
     6    2    3 1
     7    2   36 1
     8    3    4 1
     9    4    5 1
    10    4   40 1
    11    4   41 1
    12    5    6 1
    13    5    7 1
    14    5    8 1
    15    8    9 1
    16    8   42 1
    17    8   43 1
    18    9   10 am
    19    9   44 1
    20   10   11 2
    21   10   12 1
    22   12   13 1
    23   12   17 1
    24   12   14 1
    25   14   15 1
    26   14   45 1
    27   14   46 1
    28   15   16 1
    29   15   23 am
    30   16   17 1
    31   16   47 1
    32   16   48 1
    33   17   22 1
    34   17   18 1
    35   18   19 1
    36   18   49 1
    37   18   50 1
    38   19   20 1
    39   19   51 1
    40   19   52 1
    41   20   21 1
    42   20   53 1
    43   20   65 1
    44   21   22 1
    45   21   54 1
    46   21   55 1
    47   22   56 1
    48   22   57 1
    49   23   24 2
    50   23   25 1
    51   25   30 ar
    52   25   26 ar
    53   26   27 ar
    54   26   58 1
    55   27   28 ar
    56   27   59 1
    57   28   29 ar
    58   28   31 1
    59   29   30 ar
    60   29   60 1
    61   30   61 1
    62   31   32 1
    63   32   33 1
    64   32   34 1
    65   32   35 1
    66   36   62 1
    67   36   63 1
    68   36   64 1
@<TRIPOS>MOLECULE
ZINC39668878
   70    74     0     0     0
SMALL
USER_CHARGES

@<TRIPOS>ATOM
      1 C1         -3.2692    0.2358   -1.8758 C.3       1 <0>        -0.1454
      2 C2         -2.4952   -1.0502   -1.7417 C.2       1 <0>         0.4643
      3 O1         -3.0125   -2.1006   -2.0403 O.2       1 <0>        -0.5029
      4 O2         -1.2304   -1.0289   -1.2904 O.3       1 <0>        -0.2839
      5 C3         -0.6064   -2.2168   -1.0869 C.ar      1 <0>         0.1406
      6 C4         -0.6578   -2.8262    0.1577 C.ar      1 <0>        -0.1252
      7 C5         -0.0224   -4.0348    0.3634 C.ar      1 <0>        -0.0722
      8 C6          0.6697   -4.6470   -0.6686 C.ar      1 <0>        -0.1175
      9 C7          0.7309   -4.0552   -1.9118 C.ar      1 <0>        -0.0812
     10 C8          0.0878   -2.8356   -2.1349 C.ar      1 <0>        -0.1428
     11 C9          0.1438   -2.1996   -3.4654 C.2       1 <0>         0.5894
     12 O3          0.2159   -0.9894   -3.5582 O.2       1 <0>        -0.5137
     13 N1          0.1150   -2.9602   -4.5777 N.am      1 <0>        -0.6175
     14 C10         0.0913   -4.4393   -4.6662 C.3       1 <0>         0.1023
     15 C11        -0.8787   -4.7452   -5.8294 C.3       1 <0>        -0.1135
     16 H1         -1.8817   -4.9351   -5.4472 H         1 <0>         0.1146
     17 C12        -0.8672   -3.4738   -6.6946 C.3       1 <0>        -0.0725
     18 C13         0.0935   -2.5061   -5.9888 C.3       1 <0>         0.1102
     19 C14        -2.2651   -2.8661   -6.7595 C.3       1 <0>        -0.1353
     20 C15        -2.2400   -1.6361   -7.6712 C.3       1 <0>        -0.0111
     21 N2         -1.7924   -2.0285   -9.0130 N.4       1 <0>        -0.5042
     22 C16        -0.4126   -2.5260   -8.9553 C.3       1 <0>        -0.0077
     23 C17        -0.3604   -3.7935   -8.0976 C.3       1 <0>        -0.1470
     24 C18        -0.3885   -5.9280   -6.6242 C.2       1 <0>         0.5213
     25 O4          0.7921   -6.2058   -6.6324 O.2       1 <0>        -0.5209
     26 N3         -1.2619   -6.6772   -7.3258 N.am      1 <0>        -0.7209
     27 C19        -0.7853   -7.8270   -8.0985 C.3       1 <0>         0.1279
     28 C20        -1.9698   -8.4995   -8.7954 C.3       1 <0>         0.1267
     29 H2         -2.4487   -7.7842   -9.4641 H         1 <0>         0.0733
     30 C21        -1.4754   -9.6766   -9.5952 C.ar      1 <0>        -0.1259
     31 C22        -0.3237   -9.5303  -10.3531 C.ar      1 <0>        -0.1105
     32 C23         0.1560  -10.5862  -11.1019 C.ar      1 <0>        -0.1192
     33 C24        -0.5147  -11.7953  -11.0973 C.ar      1 <0>        -0.1062
     34 C25        -1.6606  -11.9428  -10.3415 C.ar      1 <0>        -0.1157
     35 C26        -2.1414  -10.8841   -9.5872 C.ar      1 <0>        -0.0654
     36 C27        -3.3883  -11.0866   -8.7647 C.3       1 <0>        -0.1205
     37 C28        -3.9677   -9.7297   -8.3610 C.3       1 <0>         0.0618
     38 O5         -2.9114   -8.9330   -7.8143 O.3       1 <0>        -0.3706
     39 H3         -3.7978    0.4405   -0.9448 H         1 <0>         0.1126
     40 H4         -2.5810    1.0535   -2.0901 H         1 <0>         0.0998
     41 H5         -3.9887    0.1438   -2.6894 H         1 <0>         0.1044
     42 H6         -1.1952   -2.3548    0.9672 H         1 <0>         0.1418
     43 H7         -0.0650   -4.5053    1.3346 H         1 <0>         0.1427
     44 H8          1.1639   -5.5921   -0.4982 H         1 <0>         0.1410
     45 H9          1.2717   -4.5361   -2.7135 H         1 <0>         0.1390
     46 H10         1.0866   -4.8226   -4.8906 H         1 <0>         0.1044
     47 H11        -0.2820   -4.8697   -3.7369 H         1 <0>         0.0997
     48 H12        -0.2809   -1.4845   -6.0540 H         1 <0>         0.0890
     49 H13         1.0895   -2.5758   -6.4262 H         1 <0>         0.0866
     50 H14        -2.9634   -3.6013   -7.1595 H         1 <0>         0.0974
     51 H15        -2.5804   -2.5709   -5.7587 H         1 <0>         0.1184
     52 H16        -3.2410   -1.2092   -7.7327 H         1 <0>         0.1401
     53 H17        -1.5538   -0.8946   -7.2619 H         1 <0>         0.1338
     54 H18        -2.3958   -2.7549   -9.3683 H         1 <0>         0.4275
     55 H19        -0.0668   -2.7551   -9.9632 H         1 <0>         0.1398
     56 H20         0.2302   -1.7634   -8.5157 H         1 <0>         0.1337
     57 H21         0.6674   -4.1520   -8.0403 H         1 <0>         0.1259
     58 H22        -0.9900   -4.5622   -8.5456 H         1 <0>         0.0979
     59 H23        -2.2061   -6.4550   -7.3193 H         1 <0>         0.4043
     60 H24        -0.0674   -7.4899   -8.8462 H         1 <0>         0.0888
     61 H25        -0.3047   -8.5405   -7.4291 H         1 <0>         0.0846
     62 H26         0.2003   -8.5860  -10.3579 H         1 <0>         0.1228
     63 H27         1.0536  -10.4679  -11.6908 H         1 <0>         0.1272
     64 H28        -0.1431  -12.6224  -11.6840 H         1 <0>         0.1282
     65 H29        -2.1849  -12.8871  -10.3383 H         1 <0>         0.1273
     66 H30        -4.1248  -11.6350   -9.3520 H         1 <0>         0.0899
     67 H31        -3.1429  -11.6570   -7.8689 H         1 <0>         0.0901
     68 H32        -4.3863   -9.2348   -9.2373 H         1 <0>         0.0577
     69 H33        -4.7456   -9.8722   -7.6108 H         1 <0>         0.1059
     70 H34        -1.8349   -1.2293   -9.6274 H         1 <0>         0.4342
@<TRIPOS>BOND
     1    1    2 1
     2    1   39 1
     3    1   40 1
     4    1   41 1
     5    2    3 2
     6    2    4 1
     7    4    5 1
     8    5   10 ar
     9    5    6 ar
    10    6    7 ar
    11    6   42 1
    12    7    8 ar
    13    7   43 1
    14    8    9 ar
    15    8   44 1
    16    9   10 ar
    17    9   45 1
    18   10   11 1
    19   11   12 2
    20   11   13 am
    21   13   18 1
    22   13   14 1
    23   14   15 1
    24   14   46 1
    25   14   47 1
    26   15   16 1
    27   15   17 1
    28   15   24 1
    29   17   23 1
    30   17   18 1
    31   17   19 1
    32   18   48 1
    33   18   49 1
    34   19   20 1
    35   19   50 1
    36   19   51 1
    37   20   21 1
    38   20   52 1
    39   20   53 1
    40   21   22 1
    41   21   54 1
    42   21   70 1
    43   22   23 1
    44   22   55 1
    45   22   56 1
    46   23   57 1
    47   23   58 1
    48   24   25 2
    49   24   26 am
    50   26   27 1
    51   26   59 1
    52   27   28 1
    53   27   60 1
    54   27   61 1
    55   28   29 1
    56   28   38 1
    57   28   30 1
    58   30   35 ar
    59   30   31 ar
    60   31   32 ar
    61   31   62 1
    62   32   33 ar
    63   32   63 1
    64   33   34 ar
    65   33   64 1
    66   34   35 ar
    67   34   65 1
    68   35   36 1
    69   36   37 1
    70   36   66 1
    71   36   67 1
    72   37   38 1
    73   37   68 1
    74   37   69 1
@<TRIPOS>MOLECULE
ZINC39684655
   73    76     0     0     0
SMALL
USER_CHARGES

@<TRIPOS>ATOM
      1 C1          0.4053    1.2967   -0.2186 C.3       1 <0>        -0.1288
      2 C2          0.3395   -0.2086   -0.1926 C.2       1 <0>         0.0231
      3 C3          0.2831   -0.9238   -1.3444 C.2       1 <0>        -0.2420
      4 C4          0.2226   -2.3335   -1.2926 C.2       1 <0>         0.5066
      5 O1          0.1726   -2.9640   -2.3333 O.2       1 <0>        -0.4575
      6 O2          0.2192   -2.9959   -0.1259 O.3       1 <0>        -0.2598
      7 C5          0.2735   -2.3437    1.0557 C.ar      1 <0>         0.1226
      8 C6          0.3410   -0.9407    1.0779 C.ar      1 <0>        -0.1107
      9 C7          0.4029   -0.2630    2.3000 C.ar      1 <0>        -0.0891
     10 C8          0.4027   -0.9769    3.4770 C.ar      1 <0>        -0.0974
     11 C9          0.3415   -2.3624    3.4577 C.ar      1 <0>        -0.1637
     12 C10         0.2690   -3.0477    2.2582 C.ar      1 <0>         0.1152
     13 O3          0.2090   -4.4061    2.2522 O.3       1 <0>        -0.2764
     14 C11         0.2081   -5.0610    3.5222 C.3       1 <0>         0.0420
     15 C12         0.1380   -6.5525    3.3182 C.2       1 <0>         0.5431
     16 O4          0.0932   -7.0096    2.1957 O.2       1 <0>        -0.4963
     17 N1          0.1250   -7.3785    4.3832 N.am      1 <0>        -0.6236
     18 C13         0.1662   -7.0110    5.8182 C.3       1 <0>         0.1070
     19 C14        -0.8081   -7.9964    6.5016 C.3       1 <0>        -0.1146
     20 H1         -1.7951   -7.5451    6.6032 H         1 <0>         0.1117
     21 C15        -0.8680   -9.2080    5.5564 C.3       1 <0>        -0.0714
     22 C16         0.0598   -8.8596    4.3836 C.3       1 <0>         0.1110
     23 C17        -2.2927   -9.4139    5.0508 C.3       1 <0>        -0.1346
     24 C18        -2.3379  -10.6577    4.1587 C.3       1 <0>        -0.0119
     25 N2         -1.8953  -11.8285    4.9256 N.4       1 <0>        -0.5045
     26 C19        -0.4939  -11.6624    5.3292 C.3       1 <0>        -0.0086
     27 C20        -0.3706  -10.4610    6.2706 C.3       1 <0>        -0.1474
     28 C21        -0.2784   -8.4067    7.8515 C.2       1 <0>         0.5197
     29 O5          0.9180   -8.4719    8.0392 O.2       1 <0>        -0.5209
     30 N3         -1.1342   -8.7012    8.8501 N.am      1 <0>        -0.7197
     31 C22        -0.6193   -9.1001   10.1624 C.3       1 <0>         0.1514
     32 H2          0.2924   -9.6833   10.0330 H         1 <0>         0.0917
     33 C23        -0.3124   -7.8510   10.9910 C.3       1 <0>        -0.1721
     34 C24        -1.6682   -9.9471   10.8859 C.3       1 <0>        -0.0756
     35 C25        -1.9750  -11.1961   10.0573 C.3       1 <0>        -0.1404
     36 C26        -1.1304  -10.3636   12.2564 C.3       1 <0>        -0.1475
     37 C27        -2.9479   -9.1284   11.0675 C.3       1 <0>        -0.1488
     38 H3          1.4475    1.6143   -0.2521 H         1 <0>         0.0940
     39 H4         -0.1163    1.6680   -1.1007 H         1 <0>         0.0873
     40 H5         -0.0677    1.6966    0.6783 H         1 <0>         0.0830
     41 H6          0.2840   -0.4163   -2.2977 H         1 <0>         0.1676
     42 H7          0.4510    0.8158    2.3201 H         1 <0>         0.1463
     43 H8          0.4509   -0.4550    4.4213 H         1 <0>         0.1425
     44 H9          0.3421   -2.9110    4.3880 H         1 <0>         0.1422
     45 H10         1.1221   -4.8106    4.0608 H         1 <0>         0.1002
     46 H11        -0.6557   -4.7323    4.1000 H         1 <0>         0.0976
     47 H12         1.1740   -7.1371    6.2140 H         1 <0>         0.1045
     48 H13        -0.1719   -5.9842    5.9574 H         1 <0>         0.0927
     49 H14        -0.3611   -9.2222    3.4459 H         1 <0>         0.0914
     50 H15         1.0506   -9.2840    4.5462 H         1 <0>         0.0877
     51 H16        -2.9637   -9.5499    5.8990 H         1 <0>         0.0963
     52 H17        -2.6043   -8.5420    4.4757 H         1 <0>         0.1183
     53 H18        -3.3579  -10.8169    3.8091 H         1 <0>         0.1405
     54 H19        -1.6790  -10.5143    3.3023 H         1 <0>         0.1350
     55 H20        -2.4713  -11.9274    5.7481 H         1 <0>         0.4270
     56 H21        -0.1548  -12.5622    5.8425 H         1 <0>         0.1397
     57 H22         0.1213  -11.4955    4.4450 H         1 <0>         0.1340
     58 H23         0.6731  -10.3274    6.5554 H         1 <0>         0.1282
     59 H24        -0.9724  -10.6345    7.1627 H         1 <0>         0.0976
     60 H25        -2.0911   -8.6491    8.7000 H         1 <0>         0.3988
     61 H26        -1.2241   -7.2678   11.1204 H         1 <0>         0.0629
     62 H27         0.0707   -8.1478   11.9673 H         1 <0>         0.0740
     63 H28         0.4348   -7.2476   10.4755 H         1 <0>         0.0616
     64 H29        -1.0633  -11.7793    9.9279 H         1 <0>         0.0567
     65 H30        -2.7223  -11.7995   10.5727 H         1 <0>         0.0626
     66 H31        -2.3582  -10.8994    9.0809 H         1 <0>         0.0454
     67 H32        -0.9118   -9.4738   12.8467 H         1 <0>         0.0656
     68 H33        -1.8776  -10.9670   12.7718 H         1 <0>         0.0638
     69 H34        -0.2187  -10.9468   12.1270 H         1 <0>         0.0597
     70 H35        -3.3310   -8.8317   10.0912 H         1 <0>         0.0488
     71 H36        -3.6951   -9.7318   11.5830 H         1 <0>         0.0635
     72 H37        -2.7293   -8.2386   11.6578 H         1 <0>         0.0665
     73 H38        -1.9838  -12.6558    4.3548 H         1 <0>         0.4349
@<TRIPOS>BOND
     1    1    2 1
     2    1   38 1
     3    1   39 1
     4    1   40 1
     5    2    8 1
     6    2    3 2
     7    3    4 1
     8    3   41 1
     9    4    5 2
    10    4    6 1
    11    6    7 1
    12    7   12 ar
    13    7    8 ar
    14    8    9 ar
    15    9   10 ar
    16    9   42 1
    17   10   11 ar
    18   10   43 1
    19   11   12 ar
    20   11   44 1
    21   12   13 1
    22   13   14 1
    23   14   15 1
    24   14   45 1
    25   14   46 1
    26   15   16 2
    27   15   17 am
    28   17   22 1
    29   17   18 1
    30   18   19 1
    31   18   47 1
    32   18   48 1
    33   19   20 1
    34   19   21 1
    35   19   28 1
    36   21   27 1
    37   21   22 1
    38   21   23 1
    39   22   49 1
    40   22   50 1
    41   23   24 1
    42   23   51 1
    43   23   52 1
    44   24   25 1
    45   24   53 1
    46   24   54 1
    47   25   26 1
    48   25   55 1
    49   25   73 1
    50   26   27 1
    51   26   56 1
    52   26   57 1
    53   27   58 1
    54   27   59 1
    55   28   29 2
    56   28   30 am
    57   30   31 1
    58   30   60 1
    59   31   32 1
    60   31   33 1
    61   31   34 1
    62   33   61 1
    63   33   62 1
    64   33   63 1
    65   34   35 1
    66   34   36 1
    67   34   37 1
    68   35   64 1
    69   35   65 1
    70   35   66 1
    71   36   67 1
    72   36   68 1
    73   36   69 1
    74   37   70 1
    75   37   71 1
    76   37   72 1
@<TRIPOS>MOLECULE
ZINC63807392
   53    56     0     0     0
SMALL
USER_CHARGES

@<TRIPOS>ATOM
      1 C1          0.1139    1.1565   -0.7570 C.ar      1 <0>        -0.0549
      2 C2          1.2986    1.8674   -0.7583 C.ar      1 <0>        -0.1448
      3 C3          2.3841    1.4133   -0.0190 C.ar      1 <0>         0.1662
      4 C4          2.2771    0.2440    0.7214 C.ar      1 <0>        -0.1742
      5 C5          1.0859   -0.4675    0.7205 C.ar      1 <0>         0.2388
      6 C6          0.0041   -0.0075   -0.0213 C.ar      1 <0>        -0.1762
      7 N1          0.9739   -1.6445    1.4641 N.pl3     1 <0>        -0.9320
      8 C7          2.0684   -2.5401    1.8796 C.3       1 <0>         0.0622
      9 C8          1.7204   -3.2553    3.1983 C.3       1 <0>        -0.1313
     10 C9          0.2528   -3.7472    3.0163 C.3       1 <0>        -0.5871
     11 S1         -0.4319   -2.3245    2.0733 S.o2      1 <0>         2.5534
     12 O1         -0.9746   -1.3497    2.9533 O.2       1 <0>        -0.9390
     13 O2         -1.1571   -2.7776    0.9383 O.2       1 <0>        -0.9401
     14 N2          3.5820    2.1326   -0.0212 N.am      1 <0>        -0.6385
     15 C10         3.5606    3.4768   -0.1159 C.2       1 <0>         0.5078
     16 O3          2.5015    4.0694   -0.1028 O.2       1 <0>        -0.4896
     17 C11         4.8404    4.2373   -0.2371 C.2       1 <0>         0.5187
     18 O4          5.8994    3.6448   -0.2502 O.2       1 <0>        -0.5049
     19 N3          4.8190    5.5816   -0.3318 N.am      1 <0>        -0.7056
     20 C12         6.0743    6.3275   -0.4506 C.3       1 <0>         0.1240
     21 C13         5.7714    7.8245   -0.5415 C.3       1 <0>        -0.1095
     22 C14         7.0626    8.5918   -0.6638 C.2       1 <0>         0.0797
     23 C15         7.6521    9.0148   -1.8051 C.ar      1 <0>        -0.1606
     24 C16         7.2821    8.8912   -3.2201 C.ar      1 <0>        -0.0079
     25 C17         8.0930    9.4301   -4.1600 C.ar      1 <0>        -0.0741
     26 C18         9.2755   10.1017   -3.8161 C.ar      1 <0>         0.0538
     27 C19         9.6811   10.2553   -2.5380 C.ar      1 <0>        -0.1884
     28 C20         8.9047    9.7287   -1.4689 C.ar      1 <0>         0.3298
     29 N4          9.0826    9.7463   -0.1702 N.pl3     1 <0>        -0.5765
     30 C21         7.9582    9.0504    0.4653 C.3       1 <0>         0.0592
     31 Cl1         7.6588    9.2860   -5.8347 Cl        1 <0>        -0.0123
     32 H1         -0.7296    1.5140   -1.3289 H         1 <0>         0.1395
     33 H2          1.3813    2.7769   -1.3349 H         1 <0>         0.1377
     34 H3          3.1192   -0.1114    1.2967 H         1 <0>         0.1336
     35 H4         -0.9234   -0.5608   -0.0224 H         1 <0>         0.1323
     36 H5          2.2377   -3.2846    1.1016 H         1 <0>         0.0916
     37 H6          2.9777   -1.9551    2.0179 H         1 <0>         0.1017
     38 H7          2.3870   -4.1030    3.3568 H         1 <0>         0.1216
     39 H8          1.7856   -2.5597    4.0350 H         1 <0>         0.0993
     40 H9          0.2121   -4.6693    2.4364 H         1 <0>         0.1497
     41 H10        -0.2495   -3.8625    3.9768 H         1 <0>         0.1500
     42 H11         4.4289    1.6644    0.0455 H         1 <0>         0.4240
     43 H12         3.9726    6.0551   -0.3213 H         1 <0>         0.4206
     44 H13         6.6956    6.1350    0.4241 H         1 <0>         0.0862
     45 H14         6.6028    6.0086   -1.3490 H         1 <0>         0.0866
     46 H15         5.1501    8.0170   -1.4162 H         1 <0>         0.1210
     47 H16         5.2428    8.1434    0.3568 H         1 <0>         0.1254
     48 H17         6.3764    8.3775   -3.5068 H         1 <0>         0.1712
     49 H18         9.8866   10.5124   -4.6063 H         1 <0>         0.1712
     50 H19        10.6006   10.7808   -2.3259 H         1 <0>         0.1715
     51 H20         7.4159    9.7300    1.1227 H         1 <0>         0.1809
     52 H21         8.3214    8.1913    1.0294 H         1 <0>         0.1795
     53 H22         9.8305   10.1546    0.2932 H         1 <0>         0.4588
@<TRIPOS>BOND
     1    1    6 ar
     2    1    2 ar
     3    1   32 1
     4    2    3 ar
     5    2   33 1
     6    3    4 ar
     7    3   14 1
     8    4    5 ar
     9    4   34 1
    10    5    6 ar
    11    5    7 1
    12    6   35 1
    13    7   11 1
    14    7    8 1
    15    8    9 1
    16    8   36 1
    17    8   37 1
    18    9   10 1
    19    9   38 1
    20    9   39 1
    21   10   11 1
    22   10   40 1
    23   10   41 1
    24   11   12 2
    25   11   13 2
    26   14   15 am
    27   14   42 1
    28   15   16 2
    29   15   17 1
    30   17   18 2
    31   17   19 am
    32   19   20 1
    33   19   43 1
    34   20   21 1
    35   20   44 1
    36   20   45 1
    37   21   22 1
    38   21   46 1
    39   21   47 1
    40   22   30 1
    41   22   23 2
    42   23   28 ar
    43   23   24 ar
    44   24   25 ar
    45   24   48 1
    46   25   26 ar
    47   25   31 1
    48   26   27 ar
    49   26   49 1
    50   27   28 ar
    51   27   50 1
    52   28   29 2
    53   29   30 1
    54   29   53 1
    55   30   51 1
    56   30   52 1
@<TRIPOS>MOLECULE
ZINC19364273
   61    65     0     0     0
SMALL
USER_CHARGES

@<TRIPOS>ATOM
      1 C1          0.8161    1.5362   -2.0123 C.ar      1 <0>        -0.0870
      2 C2          1.9595    2.2097   -1.6249 C.ar      1 <0>        -0.1007
      3 C3          3.0145    1.5146   -1.0641 C.ar      1 <0>        -0.1072
      4 C4          2.9261    0.1461   -0.8901 C.ar      1 <0>        -0.1404
      5 C5          1.7823   -0.5273   -1.2766 C.ar      1 <0>        -0.1226
      6 C6          0.7278    0.1676   -1.8388 C.ar      1 <0>        -0.1010
      7 C7          4.0767   -0.6118   -0.2796 C.3       1 <0>        -0.0267
      8 C8          3.6499   -1.1922    1.0441 C.ar      1 <0>        -0.1481
      9 C9          4.0599   -0.5988    2.2234 C.ar      1 <0>        -0.1317
     10 C10         3.6685   -1.1312    3.4375 C.ar      1 <0>        -0.0902
     11 C11         2.8667   -2.2567    3.4724 C.ar      1 <0>        -0.0792
     12 C12         2.4559   -2.8496    2.2932 C.ar      1 <0>        -0.0956
     13 C13         2.8439   -2.3147    1.0790 C.ar      1 <0>        -0.1090
     14 C14         4.4988   -1.7425   -1.2199 C.3       1 <0>         0.0140
     15 H1          3.7407   -2.5256   -1.2071 H         1 <0>         0.1764
     16 C15         5.8351   -2.3217   -0.7498 C.3       1 <0>         0.0194
     17 H2          5.7132   -3.3798   -0.5181 H         1 <0>         0.1779
     18 C16         6.8683   -2.1567   -1.8720 C.3       1 <0>        -0.1191
     19 C17         6.3496   -2.8859   -3.1184 C.3       1 <0>        -0.1317
     20 C18         4.9968   -2.2886   -3.5124 C.3       1 <0>        -0.0175
     21 N1          4.6331   -1.2181   -2.5810 N.4       1 <0>        -0.3707
     22 C19         5.6212   -0.1375   -2.6222 C.3       1 <0>        -0.0277
     23 C20         6.9906   -0.6631   -2.2015 C.3       1 <0>        -0.1549
     24 N2          6.2880   -1.6041    0.4493 N.4       1 <0>        -0.5164
     25 C21         7.5850   -2.1419    0.8811 C.3       1 <0>         0.0232
     26 C22         7.9846   -1.5027    2.1860 C.ar      1 <0>        -0.1421
     27 C23         8.8491   -0.4239    2.1912 C.ar      1 <0>        -0.0823
     28 C24         9.2157    0.1625    3.3879 C.ar      1 <0>        -0.0913
     29 C25         8.7178   -0.3297    4.5802 C.ar      1 <0>        -0.0690
     30 C26         7.8536   -1.4081    4.5757 C.ar      1 <0>        -0.0758
     31 C27         7.4821   -1.9915    3.3778 C.ar      1 <0>        -0.0895
     32 I1          6.1652   -3.6208    3.3699 I         1 <0>        -0.0195
     33 H3         -0.0100    2.0799   -2.4463 H         1 <0>         0.1401
     34 H4          2.0286    3.2789   -1.7608 H         1 <0>         0.1397
     35 H5          3.9081    2.0407   -0.7621 H         1 <0>         0.1286
     36 H6          1.7135   -1.5966   -1.1414 H         1 <0>         0.1267
     37 H7         -0.1656   -0.3585   -2.1411 H         1 <0>         0.1392
     38 H8          4.9168    0.0654   -0.1254 H         1 <0>         0.0977
     39 H9          4.6863    0.2806    2.1961 H         1 <0>         0.1289
     40 H10         3.9893   -0.6680    4.3589 H         1 <0>         0.1401
     41 H11         2.5614   -2.6731    4.4211 H         1 <0>         0.1420
     42 H12         1.8298   -3.7292    2.3204 H         1 <0>         0.1410
     43 H13         2.5199   -2.7757    0.1576 H         1 <0>         0.1280
     44 H14         7.8334   -2.5545   -1.5583 H         1 <0>         0.1467
     45 H15         7.0576   -2.7584   -3.9373 H         1 <0>         0.1272
     46 H16         6.2302   -3.9466   -2.8979 H         1 <0>         0.1170
     47 H17         5.0607   -1.8833   -4.5222 H         1 <0>         0.1496
     48 H18         4.2355   -3.0682   -3.4850 H         1 <0>         0.1430
     49 H19         5.6837    0.2569   -3.6364 H         1 <0>         0.1546
     50 H20         5.3145    0.6591   -1.9444 H         1 <0>         0.1348
     51 H21         7.3335   -0.1215   -1.3199 H         1 <0>         0.0934
     52 H22         7.7014   -0.5258   -3.0164 H         1 <0>         0.1367
     53 H23         6.3847   -0.6224    0.2374 H         1 <0>         0.4205
     54 H24         7.5048   -3.2207    1.0145 H         1 <0>         0.1460
     55 H25         8.3386   -1.9244    0.1242 H         1 <0>         0.1538
     56 H26         9.2384   -0.0395    1.2600 H         1 <0>         0.1425
     57 H27         9.8913    1.0050    3.3918 H         1 <0>         0.1492
     58 H28         9.0047    0.1284    5.5153 H         1 <0>         0.1509
     59 H29         7.4653   -1.7929    5.5071 H         1 <0>         0.1468
     60 H30         3.7430   -0.8379   -2.8659 H         1 <0>         0.4399
     61 H31         5.6115   -1.7236    1.1884 H         1 <0>         0.4316
@<TRIPOS>BOND
     1    1    6 ar
     2    1    2 ar
     3    1   33 1
     4    2    3 ar
     5    2   34 1
     6    3    4 ar
     7    3   35 1
     8    4    5 ar
     9    4    7 1
    10    5    6 ar
    11    5   36 1
    12    6   37 1
    13    7    8 1
    14    7   14 1
    15    7   38 1
    16    8   13 ar
    17    8    9 ar
    18    9   10 ar
    19    9   39 1
    20   10   11 ar
    21   10   40 1
    22   11   12 ar
    23   11   41 1
    24   12   13 ar
    25   12   42 1
    26   13   43 1
    27   14   15 1
    28   14   21 1
    29   14   16 1
    30   16   17 1
    31   16   18 1
    32   16   24 1
    33   18   23 1
    34   18   19 1
    35   18   44 1
    36   19   20 1
    37   19   45 1
    38   19   46 1
    39   20   21 1
    40   20   47 1
    41   20   48 1
    42   21   22 1
    43   21   60 1
    44   22   23 1
    45   22   49 1
    46   22   50 1
    47   23   51 1
    48   23   52 1
    49   24   25 1
    50   24   53 1
    51   24   61 1
    52   25   26 1
    53   25   54 1
    54   25   55 1
    55   26   31 ar
    56   26   27 ar
    57   27   28 ar
    58   27   56 1
    59   28   29 ar
    60   28   57 1
    61   29   30 ar
    62   29   58 1
    63   30   31 ar
    64   30   59 1
    65   31   32 1
@<TRIPOS>MOLECULE
ZINC39699852
   37    40     0     0     0
SMALL
USER_CHARGES

@<TRIPOS>ATOM
      1 C1         -0.0163    1.3483    0.0095 C.ar      1 <0>         0.0865
      2 C2          1.1564    2.1160    0.0024 C.ar      1 <0>        -0.0186
      3 C3          2.3819    1.5443   -0.0068 C.ar      1 <0>        -0.0986
      4 C4          2.4906    0.0803   -0.0091 C.ar      1 <0>         0.3276
      5 N1          3.5300   -0.7190   -0.0491 N.pl3     1 <0>        -0.4219
      6 C5          3.0725   -2.0906    0.0962 C.3       1 <0>         0.2569
      7 H1          3.3458   -2.4689    1.0812 H         1 <0>         0.2202
      8 C6          1.5605   -2.0383   -0.0340 C.2       1 <0>        -0.1017
      9 C7          1.2300   -0.7045   -0.0129 C.ar      1 <0>         0.1580
     10 C8          0.0021   -0.0041    0.0020 C.ar      1 <0>        -0.1408
     11 N2          0.8368   -3.1364   -0.2652 N.2       1 <0>         0.1068
     12 N3          1.4561   -4.0928   -0.8888 N.pl3     1 <0>        -0.3246
     13 C9          2.7286   -3.9570   -1.3335 C.2       1 <0>         0.5814
     14 N4          3.5476   -3.0096   -0.9368 N.2       1 <0>        -0.4775
     15 N5          3.1947   -4.8714   -2.2563 N.pl3     1 <0>        -0.5263
     16 N6          4.5042   -4.7694   -2.7437 N.2       1 <0>        -0.2184
     17 C10         4.9427   -5.6297   -3.6119 C.2       1 <0>         0.1816
     18 C11         6.3201   -5.5224   -4.1245 C.ar      1 <0>        -0.1014
     19 C12         6.7938   -6.4426   -5.0630 C.ar      1 <0>        -0.0161
     20 C13         8.0845   -6.3367   -5.5391 C.ar      1 <0>        -0.1041
     21 C14         8.9133   -5.3217   -5.0900 C.ar      1 <0>        -0.0109
     22 C15         8.4559   -4.4052   -4.1609 C.ar      1 <0>        -0.1283
     23 C16         7.1599   -4.4935   -3.6777 C.ar      1 <0>         0.1977
     24 O1          6.7075   -3.5897   -2.7699 O.3       1 <0>        -0.4631
     25 Br1         9.5976   -3.0250   -3.5549 Br        1 <0>        -0.0029
     26 Br2         8.7248   -7.5827   -6.8093 Br        1 <0>        -0.0005
     27 H2         -0.9697    1.8554    0.0259 H         1 <0>         0.1983
     28 H3          1.0791    3.1932    0.0040 H         1 <0>         0.2022
     29 H4          3.2706    2.1579   -0.0128 H         1 <0>         0.2034
     30 H5         -0.9281   -0.5528    0.0076 H         1 <0>         0.1961
     31 H6          2.6156   -5.5847   -2.5674 H         1 <0>         0.4113
     32 H7          4.2980   -6.4239   -3.9583 H         1 <0>         0.1464
     33 H8          6.1509   -7.2357   -5.4150 H         1 <0>         0.1571
     34 H9          9.9225   -5.2458   -5.4672 H         1 <0>         0.1591
     35 H10         6.8610   -3.8456   -1.8501 H         1 <0>         0.3975
     36 H11         0.9927   -4.9313   -1.0407 H         1 <0>         0.4841
     37 H12         4.4527   -0.4403   -0.1581 H         1 <0>         0.4836
@<TRIPOS>BOND
     1    1   10 ar
     2    1    2 ar
     3    1   27 1
     4    2    3 ar
     5    2   28 1
     6    3    4 ar
     7    3   29 1
     8    4    9 ar
     9    4    5 2
    10    5    6 1
    11    5   37 1
    12    6    7 1
    13    6   14 1
    14    6    8 1
    15    8    9 2
    16    8   11 1
    17    9   10 ar
    18   10   30 1
    19   11   12 2
    20   12   13 1
    21   12   36 1
    22   13   14 2
    23   13   15 1
    24   15   16 1
    25   15   31 1
    26   16   17 2
    27   17   18 1
    28   17   32 1
    29   18   23 ar
    30   18   19 ar
    31   19   20 ar
    32   19   33 1
    33   20   21 ar
    34   20   26 1
    35   21   22 ar
    36   21   34 1
    37   22   23 ar
    38   22   25 1
    39   23   24 1
    40   24   35 1
@<TRIPOS>MOLECULE
ZINC15305595
   79    86     0     0     0
SMALL
USER_CHARGES

@<TRIPOS>ATOM
      1 C1          4.9077  -10.8995    5.0815 C.ar      1 <0>        -0.1114
      2 C2          4.5067  -10.7120    6.3910 C.ar      1 <0>        -0.1144
      3 C3          3.5078   -9.8027    6.6846 C.ar      1 <0>        -0.1032
      4 C4          2.9101   -9.0806    5.6686 C.ar      1 <0>        -0.1135
      5 C5          3.3117   -9.2675    4.3591 C.ar      1 <0>        -0.1153
      6 C6          4.3097  -10.1778    4.0654 C.ar      1 <0>        -0.1197
      7 C7          1.8204   -8.0900    5.9884 C.3       1 <0>         0.1888
      8 H1          1.8754   -7.8125    7.0411 H         1 <0>         0.1153
      9 C8          0.4530   -8.7154    5.6917 C.3       1 <0>        -0.1408
     10 C9          0.3951   -9.1752    4.2306 C.3       1 <0>         0.2077
     11 H2          1.0510  -10.0346    4.0920 H         1 <0>         0.1048
     12 N1          0.8385   -8.0753    3.3693 N.pl3     1 <0>        -0.3698
     13 C10         1.5754   -7.0143    3.8139 C.2       1 <0>         0.3702
     14 C11         1.8044   -6.1950    2.7688 C.2       1 <0>        -0.2701
     15 C12         1.1889   -6.7691    1.6335 C.2       1 <0>         0.0501
     16 N2          0.6120   -7.8984    2.0050 N.2       1 <0>        -0.2721
     17 C13         1.1906   -6.2048    0.2682 C.2       1 <0>         0.6140
     18 O1          1.6525   -5.0981    0.0685 O.2       1 <0>        -0.4978
     19 N3          0.6800   -6.9169   -0.7559 N.am      1 <0>        -0.6212
     20 C14         0.7518   -6.4143   -2.1366 C.3       1 <0>         0.0924
     21 C15         1.3265   -7.5209   -3.0271 C.3       1 <0>        -0.0276
     22 N4          0.5261   -8.7415   -2.8673 N.4       1 <0>        -0.3784
     23 C16         0.6442   -9.2404   -1.4913 C.3       1 <0>        -0.0256
     24 C17         0.0407   -8.2216   -0.5254 C.3       1 <0>         0.0561
     25 C18         1.0090   -9.7673   -3.8013 C.3       1 <0>         0.0601
     26 C19         2.4777  -10.0768   -3.5042 C.3       1 <0>        -0.1257
     27 C20         2.9806  -11.1452   -4.4771 C.3       1 <0>        -0.0795
     28 C21         2.1477  -12.4180   -4.3120 C.3       1 <0>        -0.1185
     29 C22         0.6791  -12.1085   -4.6091 C.3       1 <0>        -0.0786
     30 C23         0.1761  -11.0401   -3.6362 C.3       1 <0>        -0.1262
     31 C24         0.5463  -11.5947   -6.0441 C.3       1 <0>        -0.1190
     32 C25         1.3792  -10.3219   -6.2092 C.3       1 <0>        -0.0788
     33 C26         2.8479  -10.6314   -5.9121 C.3       1 <0>        -0.1189
     34 C27         0.8763   -9.2535   -5.2363 C.3       1 <0>        -0.1269
     35 N5          1.9826   -6.8864    5.1492 N.pl3     1 <0>        -0.7221
     36 C28        -1.0192   -9.5575    3.8774 C.ar      1 <0>        -0.0996
     37 C29        -2.0313   -8.6202    3.9665 C.ar      1 <0>        -0.0904
     38 C30        -3.3286   -8.9709    3.6425 C.ar      1 <0>        -0.1175
     39 C31        -3.6136  -10.2587    3.2289 C.ar      1 <0>        -0.1063
     40 C32        -2.6014  -11.1958    3.1390 C.ar      1 <0>        -0.1189
     41 C33        -1.3034  -10.8439    3.4589 C.ar      1 <0>        -0.0984
     42 H3          5.6913  -11.6067    4.8527 H         1 <0>         0.1245
     43 H4          4.9737  -11.2762    7.1848 H         1 <0>         0.1276
     44 H5          3.1940   -9.6567    7.7076 H         1 <0>         0.1271
     45 H6          2.8446   -8.7035    3.5653 H         1 <0>         0.1221
     46 H7          4.6232  -10.3241    3.0423 H         1 <0>         0.1186
     47 H8          0.2968   -9.5721    6.3473 H         1 <0>         0.1114
     48 H9         -0.3291   -7.9774    5.8703 H         1 <0>         0.0920
     49 H10         2.3576   -5.2678    2.7943 H         1 <0>         0.1595
     50 H11        -0.2472   -6.1481   -2.4818 H         1 <0>         0.0957
     51 H12         1.4009   -5.5394   -2.1746 H         1 <0>         0.1366
     52 H13         1.2975   -7.2010   -4.0687 H         1 <0>         0.1448
     53 H14         2.3578   -7.7219   -2.7370 H         1 <0>         0.1346
     54 H15         0.1124  -10.1876   -1.4013 H         1 <0>         0.1427
     55 H16         1.6961   -9.3894   -1.2478 H         1 <0>         0.1323
     56 H17         0.2199   -8.5410    0.5012 H         1 <0>         0.1797
     57 H18        -1.0313   -8.1410   -0.7053 H         1 <0>         0.0909
     58 H19         3.0710   -9.1701   -3.6218 H         1 <0>         0.0855
     59 H20         2.5722  -10.4428   -2.4819 H         1 <0>         0.0849
     60 H21         4.0269  -11.3657   -4.2654 H         1 <0>         0.0910
     61 H22         2.5060  -13.1791   -5.0050 H         1 <0>         0.0797
     62 H23         2.2423  -12.7840   -3.2896 H         1 <0>         0.0698
     63 H24         0.0857  -13.0152   -4.4914 H         1 <0>         0.0919
     64 H25         0.2707  -11.4061   -2.6139 H         1 <0>         0.0867
     65 H26        -0.8702  -10.8196   -3.8479 H         1 <0>         0.0863
     66 H27         0.9047  -12.3558   -6.7371 H         1 <0>         0.0796
     67 H28        -0.4999  -11.3742   -6.2557 H         1 <0>         0.0709
     68 H29         1.2847   -9.9559   -7.2315 H         1 <0>         0.0923
     69 H30         3.4412   -9.7247   -6.0297 H         1 <0>         0.0704
     70 H31         3.2062  -11.3926   -6.6051 H         1 <0>         0.0798
     71 H32        -0.1700   -9.0330   -5.4480 H         1 <0>         0.0865
     72 H33         1.4696   -8.3468   -5.3540 H         1 <0>         0.0871
     73 H34         2.3463   -6.0594    5.5022 H         1 <0>         0.4284
     74 H35        -1.8086   -7.6140    4.2896 H         1 <0>         0.1165
     75 H36        -4.1195   -8.2388    3.7128 H         1 <0>         0.1251
     76 H37        -4.6273  -10.5329    2.9765 H         1 <0>         0.1258
     77 H38        -2.8241  -12.2021    2.8162 H         1 <0>         0.1265
     78 H39        -0.5119  -11.5750    3.3850 H         1 <0>         0.1230
     79 H40        -0.4413   -8.5365   -3.0675 H         1 <0>         0.4193
@<TRIPOS>BOND
     1    1    6 ar
     2    1    2 ar
     3    1   42 1
     4    2    3 ar
     5    2   43 1
     6    3    4 ar
     7    3   44 1
     8    4    5 ar
     9    4    7 1
    10    5    6 ar
    11    5   45 1
    12    6   46 1
    13    7    8 1
    14    7   35 1
    15    7    9 1
    16    9   10 1
    17    9   47 1
    18    9   48 1
    19   10   11 1
    20   10   12 1
    21   10   36 1
    22   12   16 1
    23   12   13 1
    24   13   14 2
    25   13   35 1
    26   14   15 1
    27   14   49 1
    28   15   16 2
    29   15   17 1
    30   17   18 2
    31   17   19 am
    32   19   24 1
    33   19   20 1
    34   20   21 1
    35   20   50 1
    36   20   51 1
    37   21   22 1
    38   21   52 1
    39   21   53 1
    40   22   23 1
    41   22   25 1
    42   22   79 1
    43   23   24 1
    44   23   54 1
    45   23   55 1
    46   24   56 1
    47   24   57 1
    48   25   30 1
    49   25   34 1
    50   25   26 1
    51   26   27 1
    52   26   58 1
    53   26   59 1
    54   27   33 1
    55   27   28 1
    56   27   60 1
    57   28   29 1
    58   28   61 1
    59   28   62 1
    60   29   30 1
    61   29   31 1
    62   29   63 1
    63   30   64 1
    64   30   65 1
    65   31   32 1
    66   31   66 1
    67   31   67 1
    68   32   33 1
    69   32   34 1
    70   32   68 1
    71   33   69 1
    72   33   70 1
    73   34   71 1
    74   34   72 1
    75   35   73 1
    76   36   41 ar
    77   36   37 ar
    78   37   38 ar
    79   37   74 1
    80   38   39 ar
    81   38   75 1
    82   39   40 ar
    83   39   76 1
    84   40   41 ar
    85   40   77 1
    86   41   78 1
@<TRIPOS>MOLECULE
ZINC63503444
   38    41     0     0     0
SMALL
USER_CHARGES

@<TRIPOS>ATOM
      1 C1         -0.0170    1.4020    0.0098 C.ar      1 <0>         0.0289
      2 C2          1.1084    2.1442    0.0030 C.ar      1 <0>        -0.0987
      3 C3          2.4171    1.4763   -0.0130 C.ar      1 <0>         0.3027
      4 N1          3.6393    1.9243   -0.0223 N.pl3     1 <0>        -0.4437
      5 C4          4.5349    0.7608   -0.0370 C.3       1 <0>         0.2030
      6 H1          5.1507    0.7741   -0.9363 H         1 <0>         0.2837
      7 N2          3.6712   -0.4266   -0.0352 N.pl3     1 <0>        -0.4259
      8 C5          2.4373   -0.0120   -0.0212 C.ar      1 <0>         0.3107
      9 C6          1.1472   -0.7153   -0.0127 C.ar      1 <0>        -0.0580
     10 C7          0.0021   -0.0041    0.0020 C.ar      1 <0>         0.0905
     11 N3         -1.2865   -0.7322    0.0104 N.pl3     1 <0>        -0.0083
     12 O1         -2.3277   -0.1180    0.0236 O.2       1 <0>        -0.0604
     13 O2         -1.2977   -1.9411    0.0040 O.3       1 <0>        -0.0773
     14 S1          5.5892    0.7679    1.4391 S.3       1 <0>         0.1025
     15 C8          4.4122    0.7430    2.8192 C.3       1 <0>        -0.1658
     16 C9          5.1787    0.7468    4.1433 C.3       1 <0>         0.0886
     17 H2          5.8973   -0.0724    4.1697 H         1 <0>         0.1363
     18 C10         4.2041    0.6477    5.3309 C.3       1 <0>         0.1463
     19 H3          4.4408   -0.2175    5.9502 H         1 <0>         0.1606
     20 N4          4.4379    1.8972    6.0749 N.pl3     1 <0>        -0.5125
     21 C11         3.8595    2.3635    7.2206 C.2       1 <0>         0.1407
     22 C12         4.2220    3.5525    7.7458 C.2       1 <0>        -0.1121
     23 C13         5.2077    4.3299    7.1122 C.2       1 <0>        -0.0045
     24 C14         5.7914    3.8809    5.9742 C.2       1 <0>        -0.1494
     25 C15         5.4022    2.6248    5.4283 C.2       1 <0>         0.4099
     26 N5          5.8570    2.0318    4.3406 N.2       1 <0>        -0.5869
     27 Cl1         3.4711    4.1226    9.2035 Cl        1 <0>        -0.0107
     28 Br1         2.3461    0.5533    4.6952 Br        1 <0>        -0.1235
     29 H4         -0.9713    1.9075    0.0262 H         1 <0>         0.2246
     30 H5          1.0484    3.2225    0.0090 H         1 <0>         0.2260
     31 H6          1.1165   -1.7948   -0.0178 H         1 <0>         0.2331
     32 H7          3.7726    1.6241    2.7671 H         1 <0>         0.1151
     33 H8          3.7985   -0.1557    2.7571 H         1 <0>         0.1184
     34 H9          3.1012    1.7728    7.7129 H         1 <0>         0.1772
     35 H10         5.4985    5.2820    7.5308 H         1 <0>         0.1641
     36 H11         6.5488    4.4740    5.4832 H         1 <0>         0.1685
     37 H12         3.9660   -1.3507   -0.0432 H         1 <0>         0.5029
     38 H13         3.9090    2.8561   -0.0202 H         1 <0>         0.5035
@<TRIPOS>BOND
     1    1   10 ar
     2    1    2 ar
     3    1   29 1
     4    2    3 ar
     5    2   30 1
     6    3    8 ar
     7    3    4 2
     8    4    5 1
     9    4   38 1
    10    5    6 1
    11    5    7 1
    12    5   14 1
    13    7    8 2
    14    7   37 1
    15    8    9 ar
    16    9   10 ar
    17    9   31 1
    18   10   11 1
    19   11   12 2
    20   11   13 1
    21   14   15 1
    22   15   16 1
    23   15   32 1
    24   15   33 1
    25   16   17 1
    26   16   26 1
    27   16   18 1
    28   18   19 1
    29   18   20 1
    30   18   28 1
    31   20   25 1
    32   20   21 1
    33   21   22 2
    34   21   34 1
    35   22   23 1
    36   22   27 1
    37   23   24 2
    38   23   35 1
    39   24   25 1
    40   24   36 1
    41   25   26 2
@<TRIPOS>MOLECULE
ZINC64414440
   63    65     0     0     0
SMALL
USER_CHARGES

@<TRIPOS>ATOM
      1 C1         -0.0187    1.5258    0.0104 C.3       1 <0>        -0.1617
      2 C2          0.0021   -0.0041    0.0020 C.3       1 <0>         0.1436
      3 H1         -1.0205   -0.3814    0.0098 H         1 <0>         0.1229
      4 C3          0.7309   -0.5033    1.2229 C.2       1 <0>         0.5169
      5 O1          1.7253   -1.1865    1.0985 O.2       1 <0>        -0.5252
      6 N1          0.2778   -0.1906    2.4531 N.am      1 <0>        -0.7300
      7 C4          0.9864   -0.6759    3.6400 C.3       1 <0>         0.1192
      8 C5          0.2702   -0.1825    4.8988 C.3       1 <0>        -0.1106
      9 C6          0.3581    1.3433    4.9706 C.3       1 <0>        -0.1156
     10 C7          1.8272    1.7678    5.0201 C.3       1 <0>        -0.1307
     11 C8          2.4923    1.1599    6.2566 C.3       1 <0>        -0.1002
     12 C9          2.4044   -0.3659    6.1848 C.3       1 <0>        -0.1312
     13 C10         0.9353   -0.7904    6.1353 C.3       1 <0>        -0.1102
     14 C11         3.9614    1.5843    6.3062 C.3       1 <0>         0.2461
     15 N2          4.5943    1.0680    7.5263 N.pl3     1 <0>        -0.4644
     16 C12         5.0079    2.0922    8.2151 C.ar      1 <0>         0.3193
     17 C13         5.7046    2.2143    9.5031 C.ar      1 <0>        -0.1398
     18 C14         6.0125    3.4373    9.9794 C.ar      1 <0>         0.0341
     19 C15         5.6932    4.6213    9.2912 C.ar      1 <0>         0.0347
     20 C16         5.0553    4.6222    8.1036 C.ar      1 <0>        -0.1405
     21 C17         4.6704    3.3454    7.4865 C.ar      1 <0>         0.3193
     22 N3          4.0612    3.0476    6.3753 N.pl3     1 <0>        -0.4653
     23 N4          0.6878   -0.4765   -1.2033 N.am      1 <0>        -0.7014
     24 C18         0.0062   -0.6081   -2.3585 C.2       1 <0>         0.6563
     25 O2         -1.1771   -0.3349   -2.4003 O.2       1 <0>        -0.5603
     26 O3          0.6364   -1.0423   -3.4663 O.3       1 <0>        -0.3538
     27 C19        -0.1476   -1.1581   -4.6554 C.3       1 <0>         0.1347
     28 C20        -0.7250    0.2108   -5.0208 C.3       1 <0>        -0.1864
     29 C21         0.7336   -1.6620   -5.8002 C.3       1 <0>        -0.1426
     30 C22        -1.2907   -2.1470   -4.4184 C.3       1 <0>        -0.1873
     31 H2          1.0039    1.9031    0.0027 H         1 <0>         0.0637
     32 H3         -0.5459    1.8868   -0.8726 H         1 <0>         0.0837
     33 H4         -0.5289    1.8773    0.9072 H         1 <0>         0.0711
     34 H5         -0.5174    0.3558    2.5526 H         1 <0>         0.4063
     35 H6          1.0012   -1.7658    3.6340 H         1 <0>         0.0777
     36 H7          2.0090   -0.2986    3.6322 H         1 <0>         0.0651
     37 H8         -0.7764   -0.4848    4.8635 H         1 <0>         0.1027
     38 H9         -0.1157    1.7764    4.0896 H         1 <0>         0.0905
     39 H10        -0.1521    1.6949    5.8674 H         1 <0>         0.0814
     40 H11         2.3374    1.4163    4.1233 H         1 <0>         0.0974
     41 H12         1.8898    2.8548    5.0713 H         1 <0>         0.0731
     42 H13         1.9821    1.5114    7.1534 H         1 <0>         0.1229
     43 H14         2.9146   -0.7174    5.2880 H         1 <0>         0.0978
     44 H15         2.8782   -0.7990    7.0658 H         1 <0>         0.0752
     45 H16         0.4251   -0.4388    7.0321 H         1 <0>         0.0825
     46 H17         0.8727   -1.8774    6.0841 H         1 <0>         0.0956
     47 H18         4.4872    1.2147    5.4258 H         1 <0>         0.2393
     48 H19         5.9678    1.3301   10.0647 H         1 <0>         0.2056
     49 H20         6.5246    3.5106   10.9274 H         1 <0>         0.2037
     50 H21         5.9699    5.5677    9.7318 H         1 <0>         0.2037
     51 H22         4.8285    5.5552    7.6091 H         1 <0>         0.2054
     52 H23         1.6324   -0.6946   -1.1699 H         1 <0>         0.4149
     53 H24         0.0894    0.9154   -5.1897 H         1 <0>         0.0597
     54 H25        -1.3230    0.1226   -5.9279 H         1 <0>         0.0748
     55 H26        -1.3528    0.5698   -4.2053 H         1 <0>         0.0859
     56 H27         1.1450   -2.6372   -5.5398 H         1 <0>         0.0681
     57 H28         0.1357   -1.7502   -6.7072 H         1 <0>         0.0852
     58 H29         1.5480   -0.9574   -5.9690 H         1 <0>         0.0675
     59 H30        -1.9185   -1.7880   -3.6029 H         1 <0>         0.0858
     60 H31        -1.8887   -2.2353   -5.3255 H         1 <0>         0.0750
     61 H32        -0.8793   -3.1223   -4.1581 H         1 <0>         0.0605
     62 H33         4.6870    0.1347    7.7739 H         1 <0>         0.4944
     63 H34         3.7335    3.6771    5.7140 H         1 <0>         0.4939
@<TRIPOS>BOND
     1    1    2 1
     2    1   31 1
     3    1   32 1
     4    1   33 1
     5    2    3 1
     6    2    4 1
     7    2   23 1
     8    4    5 2
     9    4    6 am
    10    6    7 1
    11    6   34 1
    12    7    8 1
    13    7   35 1
    14    7   36 1
    15    8   13 1
    16    8    9 1
    17    8   37 1
    18    9   10 1
    19    9   38 1
    20    9   39 1
    21   10   11 1
    22   10   40 1
    23   10   41 1
    24   11   12 1
    25   11   14 1
    26   11   42 1
    27   12   13 1
    28   12   43 1
    29   12   44 1
    30   13   45 1
    31   13   46 1
    32   14   22 1
    33   14   15 1
    34   14   47 1
    35   15   16 2
    36   15   62 1
    37   16   21 ar
    38   16   17 ar
    39   17   18 ar
    40   17   48 1
    41   18   19 ar
    42   18   49 1
    43   19   20 ar
    44   19   50 1
    45   20   21 ar
    46   20   51 1
    47   21   22 2
    48   22   63 1
    49   23   24 am
    50   23   52 1
    51   24   25 2
    52   24   26 1
    53   26   27 1
    54   27   28 1
    55   27   29 1
    56   27   30 1
    57   28   53 1
    58   28   54 1
    59   28   55 1
    60   29   56 1
    61   29   57 1
    62   29   58 1
    63   30   59 1
    64   30   60 1
    65   30   61 1
@<TRIPOS>MOLECULE
ZINC22078499
   67    71     0     0     0
SMALL
USER_CHARGES
(1S,8aS)-1-cyclohexyl-2-(4-phenylcyclohexyl)-3,4,6,7,8,8a-hexahydro-1H-pyrrolo[1,2-a]pyrazine
@<TRIPOS>ATOM
      1 C1          3.5656    6.7969    2.4992 C.ar      1 <0>        -0.1085
      2 C2          3.9804    6.0426    3.5807 C.ar      1 <0>        -0.1052
      3 C3          3.4181    4.8015    3.8142 C.ar      1 <0>        -0.1081
      4 C4          2.4407    4.3150    2.9663 C.ar      1 <0>        -0.0984
      5 C5          2.0296    5.0671    1.8817 C.ar      1 <0>        -0.1259
      6 C6          2.5892    6.3099    1.6505 C.ar      1 <0>        -0.1149
      7 C7          1.8276    2.9621    3.2208 C.3       1 <0>        -0.0492
      8 C8          2.0807    2.0528    2.0166 C.3       1 <0>        -0.1364
      9 C9          1.4583    0.6792    2.2750 C.3       1 <0>        -0.1495
     10 C10        -0.0487    0.8343    2.4892 C.3       1 <0>         0.0412
     11 C11        -0.3018    1.7436    3.6934 C.3       1 <0>        -0.1736
     12 C12         0.3207    3.1172    3.4350 C.3       1 <0>        -0.1232
     13 N1         -0.6550    1.4289    1.2906 N.4       1 <0>        -0.4149
     14 C13         0.1318    1.1165    0.0938 C.3       1 <0>        -0.0623
     15 C14        -0.5047    1.7356   -1.1608 C.3       1 <0>        -0.0326
     16 N2         -1.8747    1.2485   -1.2430 N.4       1 <0>        -0.4159
     17 C15        -2.6816    1.7047   -2.3832 C.3       1 <0>        -0.0042
     18 C16        -4.1379    1.4021   -1.9375 C.3       1 <0>        -0.1462
     19 C17        -4.0846    1.3805   -0.3879 C.3       1 <0>        -0.1413
     20 C18        -2.6327    1.7401   -0.0598 C.3       1 <0>         0.0232
     21 H1         -2.5424    2.8181    0.1394 H         1 <0>         0.1696
     22 C19        -2.0695    1.0314    1.1632 C.3       1 <0>         0.0202
     23 H2         -2.1244   -0.0617    1.0534 H         1 <0>         0.1593
     24 C20        -2.8439    1.4558    2.4126 C.3       1 <0>        -0.1166
     25 C21        -4.2867    0.9567    2.3124 C.3       1 <0>        -0.1360
     26 C22        -5.0611    1.3811    3.5618 C.3       1 <0>        -0.1250
     27 C23        -5.0558    2.9072    3.6713 C.3       1 <0>        -0.1289
     28 C24        -3.6130    3.4062    3.7715 C.3       1 <0>        -0.1204
     29 C25        -2.8386    2.9818    2.5220 C.3       1 <0>        -0.1495
     30 H3          4.0047    7.7667    2.3170 H         1 <0>         0.1300
     31 H4          4.7436    6.4229    4.2435 H         1 <0>         0.1311
     32 H5          3.7422    4.2121    4.6592 H         1 <0>         0.1261
     33 H6          1.2691    4.6852    1.2168 H         1 <0>         0.1019
     34 H7          2.2654    6.8991    0.8053 H         1 <0>         0.1245
     35 H8          2.2905    2.5295    4.1200 H         1 <0>         0.1016
     36 H9          1.6267    2.4981    1.1191 H         1 <0>         0.0592
     37 H10         3.1641    1.9413    1.8626 H         1 <0>         0.1036
     38 H11         1.6403    0.0255    1.4092 H         1 <0>         0.0940
     39 H12         1.9123    0.2339    3.1725 H         1 <0>         0.1252
     40 H13        -0.5202   -0.1478    2.6411 H         1 <0>         0.1420
     41 H14        -1.3853    1.8551    3.8473 H         1 <0>         0.1138
     42 H15         0.1521    1.2983    4.5910 H         1 <0>         0.1253
     43 H16         0.1388    3.7709    4.3008 H         1 <0>         0.1061
     44 H17        -0.1333    3.5625    2.5375 H         1 <0>         0.0523
     45 H18         1.1491    1.5189    0.2084 H         1 <0>         0.1919
     46 H19         0.1818    0.0255   -0.0377 H         1 <0>         0.1544
     47 H20        -0.4913    2.8322   -1.0756 H         1 <0>         0.1463
     48 H21         0.0657    1.4299   -2.0503 H         1 <0>         0.1793
     49 H22        -2.5082    2.7782   -2.5489 H         1 <0>         0.1360
     50 H23        -2.3935    1.1434   -3.2843 H         1 <0>         0.1463
     51 H24        -4.8070    2.1915   -2.3105 H         1 <0>         0.1225
     52 H25        -4.4525    0.4309   -2.3472 H         1 <0>         0.1121
     53 H26        -4.7945    2.1186    0.0137 H         1 <0>         0.1344
     54 H27        -4.3544    0.3775   -0.0257 H         1 <0>         0.1192
     55 H28        -2.3672    1.0226    3.3043 H         1 <0>         0.1288
     56 H29        -4.7634    1.3899    1.4207 H         1 <0>         0.0917
     57 H30        -4.2905   -0.1405    2.2337 H         1 <0>         0.0790
     58 H31        -6.0984    1.0223    3.4897 H         1 <0>         0.0813
     59 H32        -4.5844    0.9479    4.4535 H         1 <0>         0.0709
     60 H33        -5.5326    3.3404    2.7797 H         1 <0>         0.0668
     61 H34        -5.6126    3.2123    4.5696 H         1 <0>         0.0793
     62 H35        -3.6091    4.5034    3.8502 H         1 <0>         0.0809
     63 H36        -3.1362    2.9730    4.6631 H         1 <0>         0.0737
     64 H37        -1.8013    3.3406    2.5940 H         1 <0>         0.0696
     65 H38        -3.3154    3.4150    1.6304 H         1 <0>         0.0774
     66 H39        -0.6370    2.5237    1.3960 H         1 <0>         0.4360
     67 H40        -1.7272    0.1626   -1.3378 H         1 <0>         0.4585
@<TRIPOS>BOND
     1    1    6 ar
     2    1    2 ar
     3    1   30 1
     4    2    3 ar
     5    2   31 1
     6    3    4 ar
     7    3   32 1
     8    4    5 ar
     9    4    7 1
    10    5    6 ar
    11    5   33 1
    12    6   34 1
    13    7   12 1
    14    7    8 1
    15    7   35 1
    16    8    9 1
    17    8   36 1
    18    8   37 1
    19    9   10 1
    20    9   38 1
    21    9   39 1
    22   10   11 1
    23   10   13 1
    24   10   40 1
    25   11   12 1
    26   11   41 1
    27   11   42 1
    28   12   43 1
    29   12   44 1
    30   13   22 1
    31   13   14 1
    32   13   66 1
    33   14   15 1
    34   14   45 1
    35   14   46 1
    36   15   16 1
    37   15   47 1
    38   15   48 1
    39   16   20 1
    40   16   17 1
    41   16   67 1
    42   17   18 1
    43   17   49 1
    44   17   50 1
    45   18   19 1
    46   18   51 1
    47   18   52 1
    48   19   20 1
    49   19   53 1
    50   19   54 1
    51   20   21 1
    52   20   22 1
    53   22   23 1
    54   22   24 1
    55   24   29 1
    56   24   25 1
    57   24   55 1
    58   25   26 1
    59   25   56 1
    60   25   57 1
    61   26   27 1
    62   26   58 1
    63   26   59 1
    64   27   28 1
    65   27   60 1
    66   27   61 1
    67   28   29 1
    68   28   62 1
    69   28   63 1
    70   29   64 1
    71   29   65 1
@<TRIPOS>MOLECULE
ZINC38971269
   42    45     0     0     0
SMALL
USER_CHARGES

@<TRIPOS>ATOM
      1 C1         -0.3212    1.0901    0.2487 C.ar      1 <0>        -0.0158
      2 C2          0.7871    1.9469    0.1431 C.ar      1 <0>         0.1456
      3 C3          2.0534    1.4920    0.0235 C.ar      1 <0>        -0.2031
      4 C4          2.3154    0.0985   -0.0002 C.ar      1 <0>         0.3775
      5 N1          3.5515   -0.3393   -0.1164 N.pl3     1 <0>        -0.5381
      6 C5          3.8342   -1.6515   -0.1426 C.2       1 <0>         0.4474
      7 N2          5.0636   -2.0594   -0.2582 N.2       1 <0>        -0.8117
      8 S1          6.2941   -0.9573   -0.3745 S.o2      1 <0>         2.6265
      9 O1          6.1142   -0.2763   -1.6086 O.2       1 <0>        -0.9139
     10 O2          6.3477   -0.2755    0.8711 O.2       1 <0>        -0.9126
     11 C6          7.7965   -1.8670   -0.5157 C.2       1 <0>        -0.7836
     12 C7          8.4285   -2.3033   -1.6326 C.2       1 <0>         0.0375
     13 C8          9.6114   -3.0064   -1.5022 C.2       1 <0>        -0.2025
     14 C9         10.1045   -3.2388   -0.2611 C.2       1 <0>        -0.0812
     15 S2          8.8855   -2.4465    0.7749 S.3       1 <0>         0.2042
     16 C10         2.7022   -2.6481   -0.0352 C.3       1 <0>         0.3260
     17 H1          2.8980   -3.2820    0.8296 H         1 <0>         0.2298
     18 N3          1.3341   -2.1223    0.0940 N.pl3     1 <0>        -0.4350
     19 C11         1.1632   -0.8298    0.1097 C.ar      1 <0>         0.3460
     20 C12        -0.1838   -0.2540    0.2368 C.ar      1 <0>        -0.1140
     21 N4          2.7423   -3.5003   -1.2261 N.pl3     1 <0>        -0.6995
     22 C13         2.5705   -4.8824   -1.1027 C.ar      1 <0>         0.1573
     23 C14         2.2358   -5.4349    0.1265 C.ar      1 <0>        -0.1600
     24 C15         2.0662   -6.8005    0.2456 C.ar      1 <0>        -0.0537
     25 C16         2.2300   -7.6187   -0.8584 C.ar      1 <0>        -0.0365
     26 C17         2.5640   -7.0718   -2.0848 C.ar      1 <0>        -0.0514
     27 C18         2.7289   -5.7054   -2.2114 C.ar      1 <0>        -0.0550
     28 Cl1         3.1403   -5.0187   -3.7518 Cl        1 <0>        -0.0304
     29 Cl2         2.0165   -9.3346   -0.7043 Cl        1 <0>        -0.0179
     30 H2         -1.3084    1.5170    0.3465 H         1 <0>         0.2139
     31 H3          0.6197    3.0137    0.1577 H         1 <0>         0.2146
     32 H4          2.8709    2.1934   -0.0548 H         1 <0>         0.2159
     33 H5          8.0138   -2.1048   -2.6099 H         1 <0>         0.1530
     34 H6         10.1348   -3.3655   -2.3760 H         1 <0>         0.1623
     35 H7         11.0036   -3.7636    0.0262 H         1 <0>         0.2129
     36 H8         -1.0491   -0.8949    0.3197 H         1 <0>         0.2205
     37 H9          2.8880   -3.1058   -2.1002 H         1 <0>         0.4295
     38 H10         2.1084   -4.7973    0.9889 H         1 <0>         0.1366
     39 H11         1.8059   -7.2303    1.2016 H         1 <0>         0.1592
     40 H12         2.6919   -7.7127   -2.9446 H         1 <0>         0.1641
     41 H13         0.5764   -2.7237    0.1656 H         1 <0>         0.4804
     42 H14         4.2760    0.3021   -0.1852 H         1 <0>         0.4551
@<TRIPOS>BOND
     1    1   20 ar
     2    1    2 ar
     3    1   30 1
     4    2    3 ar
     5    2   31 1
     6    3    4 ar
     7    3   32 1
     8    4   19 ar
     9    4    5 2
    10    5    6 1
    11    5   42 1
    12    6    7 2
    13    6   16 1
    14    7    8 1
    15    8    9 2
    16    8   10 2
    17    8   11 1
    18   11   15 1
    19   11   12 2
    20   12   13 1
    21   12   33 1
    22   13   14 2
    23   13   34 1
    24   14   15 1
    25   14   35 1
    26   16   17 1
    27   16   18 1
    28   16   21 1
    29   18   19 2
    30   18   41 1
    31   19   20 ar
    32   20   36 1
    33   21   22 1
    34   21   37 1
    35   22   27 ar
    36   22   23 ar
    37   23   24 ar
    38   23   38 1
    39   24   25 ar
    40   24   39 1
    41   25   26 ar
    42   25   29 1
    43   26   27 ar
    44   26   40 1
    45   27   28 1
@<TRIPOS>MOLECULE
ZINC17857704
   36    37     0     0     0
SMALL
USER_CHARGES

@<TRIPOS>ATOM
      1 C1         -0.0166    1.3749    0.0096 C.ar      1 <0>        -0.0003
      2 C2          1.1846    2.0871    0.0020 C.ar      1 <0>        -0.1876
      3 C3          2.3988    1.3974   -0.0133 C.ar      1 <0>        -0.0411
      4 C4          2.4048    0.0174   -0.0208 C.ar      1 <0>        -0.0495
      5 C5          1.2087   -0.6833   -0.0136 C.ar      1 <0>         0.0455
      6 C6          0.0021   -0.0041    0.0020 C.ar      1 <0>        -0.1060
      7 Cl1         1.2236   -2.4192   -0.0237 Cl        1 <0>         0.0203
      8 Cl2         3.9127   -0.8426   -0.0398 Cl        1 <0>         0.0036
      9 C7          1.1709    3.5629    0.0095 C.2       1 <0>         0.4013
     10 N1          2.2849    4.2199    0.0024 N.pl3     1 <0>        -0.5626
     11 C8          2.2713    5.6849    0.0099 C.3       1 <0>         0.0368
     12 C9          2.8884    6.1939    1.3141 C.3       1 <0>         0.0368
     13 N2          2.8748    7.6588    1.3217 N.pl3     1 <0>        -0.5626
     14 C10         2.1569    8.2945    2.1897 C.2       1 <0>         0.4013
     15 C11         2.1432    9.7702    2.1972 C.ar      1 <0>        -0.1876
     16 C12         2.8999   10.4830    1.2647 C.ar      1 <0>        -0.0410
     17 C13         2.8823   11.8630    1.2768 C.ar      1 <0>        -0.0496
     18 C14         2.1162   12.5405    2.2123 C.ar      1 <0>         0.0455
     19 C15         1.3645   11.8383    3.1394 C.ar      1 <0>        -0.1059
     20 C16         1.3691   10.4593    3.1333 C.ar      1 <0>        -0.0004
     21 Cl3         2.0993   14.2764    2.2221 Cl        1 <0>         0.0203
     22 Cl4         3.8219   12.7516    0.1188 Cl        1 <0>         0.0037
     23 H1         -0.9585    1.9030    0.0259 H         1 <0>         0.1700
     24 H2          3.3310    1.9427   -0.0197 H         1 <0>         0.1489
     25 H3         -0.9265   -0.5555    0.0083 H         1 <0>         0.1744
     26 H4          0.2307    4.0941    0.0210 H         1 <0>         0.2219
     27 H5          2.8495    6.0579   -0.8355 H         1 <0>         0.1443
     28 H6          1.2435    6.0391   -0.0682 H         1 <0>         0.1402
     29 H7          2.3103    5.8209    2.1595 H         1 <0>         0.1402
     30 H8          3.9163    5.8397    1.3923 H         1 <0>         0.1443
     31 H9          1.5675    7.7453    2.9089 H         1 <0>         0.2218
     32 H10         3.4976    9.9557    0.5360 H         1 <0>         0.1490
     33 H11         0.7701   12.3719    3.8663 H         1 <0>         0.1744
     34 H12         0.7785    9.9131    3.8539 H         1 <0>         0.1700
     35 H13         3.1294    3.7428   -0.0079 H         1 <0>         0.4399
     36 H14         3.4042    8.1521    0.6756 H         1 <0>         0.4399
@<TRIPOS>BOND
     1    1    6 ar
     2    1    2 ar
     3    1   23 1
     4    2    3 ar
     5    2    9 1
     6    3    4 ar
     7    3   24 1
     8    4    5 ar
     9    4    8 1
    10    5    6 ar
    11    5    7 1
    12    6   25 1
    13    9   10 2
    14    9   26 1
    15   10   11 1
    16   10   35 1
    17   11   12 1
    18   11   27 1
    19   11   28 1
    20   12   13 1
    21   12   29 1
    22   12   30 1
    23   13   14 2
    24   13   36 1
    25   14   15 1
    26   14   31 1
    27   15   20 ar
    28   15   16 ar
    29   16   17 ar
    30   16   32 1
    31   17   18 ar
    32   17   22 1
    33   18   19 ar
    34   18   21 1
    35   19   20 ar
    36   19   33 1
    37   20   34 1
@<TRIPOS>MOLECULE
ZINC39944162
   57    61     0     0     0
SMALL
USER_CHARGES

@<TRIPOS>ATOM
      1 C1         -0.0662    1.3099    0.0403 C.ar      1 <0>        -0.1019
      2 C2          1.1158    2.0262    0.0191 C.ar      1 <0>        -0.1130
      3 C3          2.3271    1.3605   -0.0014 C.ar      1 <0>        -0.1092
      4 C4          2.3564   -0.0215   -0.0002 C.ar      1 <0>        -0.1115
      5 C5          1.1744   -0.7379    0.0219 C.ar      1 <0>        -0.1099
      6 C6         -0.0370   -0.0722    0.0410 C.ar      1 <0>        -0.1134
      7 C7          3.6770   -0.7472   -0.0236 C.3       1 <0>        -0.0864
      8 C8          4.1503   -0.9910    1.4108 C.3       1 <0>         0.0730
      9 N1          5.4341   -1.6965    1.3881 N.pl3     1 <0>        -0.5463
     10 C9          6.0259   -2.0090    2.5065 C.cat     1 <0>         0.4921
     11 N2          7.1824   -2.7447    2.6792 N.pl3     1 <0>        -0.4388
     12 C10         7.8799   -2.6797    3.9491 C.3       1 <0>         0.1393
     13 H1          7.9578   -3.6869    4.3587 H         1 <0>         0.1393
     14 C11         7.1696   -1.7753    4.9830 C.3       1 <0>        -0.0989
     15 S1          5.5321   -1.5777    4.1690 S.3       1 <0>         0.0807
     16 C12         9.2686   -2.1442    3.7133 C.ar      1 <0>        -0.1534
     17 C13         9.4678   -1.1102    2.8177 C.ar      1 <0>        -0.1039
     18 C14        10.7417   -0.6190    2.6014 C.ar      1 <0>        -0.1063
     19 C15        11.8163   -1.1614    3.2810 C.ar      1 <0>        -0.0871
     20 C16        11.6170   -2.1947    4.1773 C.ar      1 <0>        -0.1033
     21 C17        10.3425   -2.6831    4.3968 C.ar      1 <0>        -0.0980
     22 N3          7.6755   -3.5444    1.6399 N.2       1 <0>        -0.2053
     23 C18         8.7094   -4.3233    1.8463 C.2       1 <0>         0.1336
     24 C19         9.2693   -5.0397    0.7822 C.2       1 <0>         0.0622
     25 C20        10.3584   -5.9096    0.8316 C.ar      1 <0>        -0.0911
     26 C21        11.1971   -6.3287    1.8869 C.ar      1 <0>        -0.0534
     27 C22        12.2035   -7.2054    1.6396 C.ar      1 <0>        -0.1081
     28 C23        12.4361   -7.7099    0.3576 C.ar      1 <0>         0.0472
     29 C24        11.6710   -7.3515   -0.7019 C.ar      1 <0>        -0.1940
     30 C25        10.5988   -6.4386   -0.5214 C.ar      1 <0>         0.3199
     31 N4          9.7249   -5.9412   -1.3727 N.pl3     1 <0>        -0.5708
     32 C26         8.8157   -5.0377   -0.6611 C.3       1 <0>         0.0739
     33 H2         -1.0126    1.8300    0.0609 H         1 <0>         0.1312
     34 H3          1.0929    3.1060    0.0182 H         1 <0>         0.1307
     35 H4          3.2507    1.9202   -0.0187 H         1 <0>         0.1237
     36 H5          1.1972   -1.8176    0.0225 H         1 <0>         0.1227
     37 H6         -0.9605   -0.6318    0.0579 H         1 <0>         0.1303
     38 H7          3.5574   -1.7028   -0.5341 H         1 <0>         0.0919
     39 H8          4.4144   -0.1428   -0.5518 H         1 <0>         0.0931
     40 H9          4.2699   -0.0355    1.9213 H         1 <0>         0.1259
     41 H10         3.4129   -1.5954    1.9390 H         1 <0>         0.1207
     42 H11         7.0773   -2.2739    5.9478 H         1 <0>         0.1708
     43 H12         7.6761   -0.8153    5.0831 H         1 <0>         0.1504
     44 H13         8.6283   -0.6865    2.2867 H         1 <0>         0.1117
     45 H14        10.8974    0.1884    1.9011 H         1 <0>         0.1344
     46 H15        12.8117   -0.7780    3.1115 H         1 <0>         0.1383
     47 H16        12.4566   -2.6187    4.7080 H         1 <0>         0.1410
     48 H17        10.1863   -3.4880    5.0998 H         1 <0>         0.1372
     49 H18         9.1292   -4.4122    2.8373 H         1 <0>         0.1683
     50 H19        11.0390   -5.9530    2.8871 H         1 <0>         0.1598
     51 H20        12.8399   -7.5202    2.4533 H         1 <0>         0.1651
     52 H21        13.2488   -8.4050    0.2067 H         1 <0>         0.1704
     53 H22        11.8764   -7.7588   -1.6808 H         1 <0>         0.1693
     54 H23         7.7904   -5.4004   -0.7327 H         1 <0>         0.1793
     55 H24         8.8886   -4.0323   -1.0759 H         1 <0>         0.1768
     56 H25         9.6864   -6.1442   -2.3205 H         1 <0>         0.4609
     57 H26         5.8437   -1.9311    0.5407 H         1 <0>         0.4389
@<TRIPOS>BOND
     1    1    6 ar
     2    1    2 ar
     3    1   33 1
     4    2    3 ar
     5    2   34 1
     6    3    4 ar
     7    3   35 1
     8    4    5 ar
     9    4    7 1
    10    5    6 ar
    11    5   36 1
    12    6   37 1
    13    7    8 1
    14    7   38 1
    15    7   39 1
    16    8    9 1
    17    8   40 1
    18    8   41 1
    19    9   10 2
    20    9   57 1
    21   10   15 1
    22   10   11 1
    23   11   12 1
    24   11   22 1
    25   12   13 1
    26   12   14 1
    27   12   16 1
    28   14   15 1
    29   14   42 1
    30   14   43 1
    31   16   21 ar
    32   16   17 ar
    33   17   18 ar
    34   17   44 1
    35   18   19 ar
    36   18   45 1
    37   19   20 ar
    38   19   46 1
    39   20   21 ar
    40   20   47 1
    41   21   48 1
    42   22   23 2
    43   23   24 1
    44   23   49 1
    45   24   32 1
    46   24   25 2
    47   25   30 ar
    48   25   26 ar
    49   26   27 ar
    50   26   50 1
    51   27   28 ar
    52   27   51 1
    53   28   29 ar
    54   28   52 1
    55   29   30 ar
    56   29   53 1
    57   30   31 2
    58   31   32 1
    59   31   56 1
    60   32   54 1
    61   32   55 1
@<TRIPOS>MOLECULE
ZINC63743449
   51    54     0     0     0
SMALL
USER_CHARGES

@<TRIPOS>ATOM
      1 C1         -0.4133    1.3785    0.3233 C.3       1 <0>        -0.1330
      2 C2         -0.3005   -0.1225    0.2508 C.ar      1 <0>        -0.0167
      3 C3         -0.2852   -0.7560   -0.9778 C.ar      1 <0>        -0.1500
      4 C4         -0.1817   -2.1328   -1.0443 C.ar      1 <0>        -0.0306
      5 C5         -0.0930   -2.8762    0.1178 C.ar      1 <0>        -0.6860
      6 C6         -0.1074   -2.2427    1.3464 C.ar      1 <0>        -0.0047
      7 C7         -0.2066   -0.8655    1.4127 C.ar      1 <0>        -0.1340
      8 S1          0.0377   -4.6313    0.0331 S.o2      1 <0>         2.6813
      9 O1         -0.4423   -5.1346    1.2723 O.2       1 <0>        -0.9298
     10 O2         -0.5201   -5.0204   -1.2146 O.2       1 <0>        -0.9392
     11 N1          1.6509   -4.9994   -0.0343 N.pl3     1 <0>        -1.0612
     12 C8          2.4974   -4.6227    1.0109 C.ar      1 <0>         0.1698
     13 C9          2.0359   -4.6398    2.3213 C.ar      1 <0>        -0.1665
     14 C10         2.8756   -4.2672    3.3522 C.ar      1 <0>        -0.0646
     15 C11         4.1745   -3.8768    3.0815 C.ar      1 <0>        -0.1238
     16 C12         4.6368   -3.8582    1.7786 C.ar      1 <0>        -0.0866
     17 C13         3.8041   -4.2356    0.7432 C.ar      1 <0>        -0.1363
     18 C14         4.3109   -4.2214   -0.6760 C.3       1 <0>        -0.0768
     19 C15         3.9376   -2.8933   -1.3376 C.3       1 <0>        -0.1440
     20 C16         4.4521   -2.8788   -2.7784 C.3       1 <0>         0.2443
     21 N2          5.9183   -2.9582   -2.7908 N.pl3     1 <0>        -0.4656
     22 C17         6.3629   -1.8797   -3.3683 C.ar      1 <0>         0.3210
     23 C18         7.7163   -1.3938   -3.6707 C.ar      1 <0>        -0.1398
     24 C19         7.8738   -0.2086   -4.2932 C.ar      1 <0>         0.0345
     25 C20         6.7868    0.5987   -4.6729 C.ar      1 <0>         0.0353
     26 C21         5.5057    0.2478   -4.4428 C.ar      1 <0>        -0.1408
     27 C22         5.2122   -1.0254   -3.7706 C.ar      1 <0>         0.3205
     28 N3          4.1007   -1.6089   -3.4263 N.pl3     1 <0>        -0.4671
     29 H1          0.5836    1.8190    0.3082 H         1 <0>         0.0799
     30 H2         -0.9839    1.7417   -0.5315 H         1 <0>         0.0781
     31 H3         -0.9213    1.6606    1.2455 H         1 <0>         0.0818
     32 H4         -0.3545   -0.1752   -1.8857 H         1 <0>         0.1335
     33 H5         -0.1705   -2.6278   -2.0041 H         1 <0>         0.1373
     34 H6         -0.0385   -2.8235    2.2543 H         1 <0>         0.1442
     35 H7         -0.2141   -0.3702    2.3725 H         1 <0>         0.1405
     36 H8          2.0079   -5.4767   -0.7995 H         1 <0>         0.4222
     37 H9          1.0216   -4.9439    2.5332 H         1 <0>         0.1690
     38 H10         2.5175   -4.2803    4.3710 H         1 <0>         0.1426
     39 H11         4.8291   -3.5856    3.8896 H         1 <0>         0.1362
     40 H12         5.6515   -3.5522    1.5706 H         1 <0>         0.1262
     41 H13         5.3950   -4.3351   -0.6758 H         1 <0>         0.0849
     42 H14         3.8594   -5.0435   -1.2313 H         1 <0>         0.0985
     43 H15         2.8536   -2.7795   -1.3377 H         1 <0>         0.1418
     44 H16         4.3891   -2.0712   -0.7822 H         1 <0>         0.1220
     45 H17         4.0267   -3.7134   -3.3356 H         1 <0>         0.2424
     46 H18         8.5792   -1.9823   -3.3957 H         1 <0>         0.2060
     47 H19         8.8748    0.1349   -4.5086 H         1 <0>         0.2040
     48 H20         6.9862    1.5374   -5.1683 H         1 <0>         0.2039
     49 H21         4.7003    0.8982   -4.7506 H         1 <0>         0.2055
     50 H22         6.4568   -3.6817   -2.4337 H         1 <0>         0.4947
     51 H23         3.2045   -1.2674   -3.5715 H         1 <0>         0.4952
@<TRIPOS>BOND
     1    1    2 1
     2    1   29 1
     3    1   30 1
     4    1   31 1
     5    2    7 ar
     6    2    3 ar
     7    3    4 ar
     8    3   32 1
     9    4    5 ar
    10    4   33 1
    11    5    6 ar
    12    5    8 1
    13    6    7 ar
    14    6   34 1
    15    7   35 1
    16    8    9 2
    17    8   10 2
    18    8   11 1
    19   11   12 1
    20   11   36 1
    21   12   17 ar
    22   12   13 ar
    23   13   14 ar
    24   13   37 1
    25   14   15 ar
    26   14   38 1
    27   15   16 ar
    28   15   39 1
    29   16   17 ar
    30   16   40 1
    31   17   18 1
    32   18   19 1
    33   18   41 1
    34   18   42 1
    35   19   20 1
    36   19   43 1
    37   19   44 1
    38   20   28 1
    39   20   21 1
    40   20   45 1
    41   21   22 2
    42   21   50 1
    43   22   27 ar
    44   22   23 ar
    45   23   24 ar
    46   23   46 1
    47   24   25 ar
    48   24   47 1
    49   25   26 ar
    50   25   48 1
    51   26   27 ar
    52   26   49 1
    53   27   28 2
    54   28   51 1
@<TRIPOS>MOLECULE
ZINC09347860
   45    48     0     0     0
SMALL
USER_CHARGES
N-[2-(5-chloro-1H-indol-3-yl)ethyl]-2-[2,4-dioxo-5-(2-thienylmethylene)thiazolidin-3-yl]-acetamide
@<TRIPOS>ATOM
      1 C1         -1.1924    1.7774    0.0172 C.2       1 <0>        -0.1795
      2 C2         -0.0126    1.0758    0.0080 C.2       1 <0>        -0.0813
      3 C3          1.1630    1.8189    0.0007 C.2       1 <0>        -0.2105
      4 S1          0.5395    3.4904    0.0157 S.3       1 <0>         0.1751
      5 C4         -1.1573    3.1358    0.0300 C.2       1 <0>        -0.1815
      6 C5          2.5030    1.3673   -0.0149 C.2       1 <0>         0.1356
      7 C6          3.5260    2.2685   -0.0198 C.2       1 <0>        -0.2303
      8 C7          4.9356    2.0423   -0.0290 C.2       1 <0>         0.5672
      9 O1          5.3893    0.9120   -0.0334 O.2       1 <0>        -0.4740
     10 N1          5.7334    3.0960   -0.0370 N.am      1 <0>        -0.5626
     11 C8          5.2295    4.3500   -0.0244 C.2       1 <0>         0.5604
     12 O2          5.8249    5.4109   -0.0234 O.2       1 <0>        -0.4115
     13 S2          3.4677    4.0551   -0.0084 S.3       1 <0>        -0.0501
     14 C9          7.1854    2.9018   -0.0523 C.3       1 <0>         0.0742
     15 C10         7.6971    2.8270    1.3632 C.2       1 <0>         0.5036
     16 O3          6.9250    2.9262    2.2932 O.2       1 <0>        -0.5248
     17 N2          9.0128    2.6499    1.5957 N.am      1 <0>        -0.7251
     18 C11         9.5103    2.5773    2.9717 C.3       1 <0>         0.1244
     19 C12        11.0267    2.3744    2.9557 C.3       1 <0>        -0.0537
     20 C13        11.5384    2.2997    4.3712 C.2       1 <0>        -0.1700
     21 C14        12.0451    3.3127    5.0916 C.2       1 <0>         0.0690
     22 N3         12.4018    2.8680    6.3354 N.pl3     1 <0>        -0.5915
     23 H1         12.7888    3.4184    7.0342 H         1 <0>         0.4200
     24 C15        12.1356    1.5208    6.4453 C.ar      1 <0>         0.0993
     25 C16        11.5832    1.1063    5.2197 C.ar      1 <0>        -0.0903
     26 C17        11.2118   -0.2272    5.0379 C.ar      1 <0>        -0.0604
     27 C18        11.3896   -1.1297    6.0632 C.ar      1 <0>        -0.0580
     28 C19        11.9352   -0.7194    7.2729 C.ar      1 <0>        -0.0898
     29 C20        12.3059    0.5931    7.4671 C.ar      1 <0>        -0.1149
     30 Cl1        10.9300   -2.7891    5.8421 Cl        1 <0>        -0.0707
     31 H2         -2.1379    1.2555    0.0186 H         1 <0>         0.1419
     32 H3          0.0021   -0.0041    0.0020 H         1 <0>         0.1490
     33 H4         -1.9865    3.8276    0.0422 H         1 <0>         0.1920
     34 H5          2.7160    0.3085   -0.0231 H         1 <0>         0.1755
     35 H6          7.4224    1.9744   -0.5738 H         1 <0>         0.1344
     36 H7          7.6585    3.7387   -0.5659 H         1 <0>         0.1297
     37 H8          9.6304    2.5706    0.8519 H         1 <0>         0.4036
     38 H9          9.2732    3.5046    3.4932 H         1 <0>         0.0702
     39 H10         9.0372    1.7404    3.4854 H         1 <0>         0.0712
     40 H11        11.2638    1.4471    2.4342 H         1 <0>         0.0797
     41 H12        11.4998    3.2113    2.4421 H         1 <0>         0.0800
     42 H13        12.1525    4.3289    4.7422 H         1 <0>         0.1744
     43 H14        10.7876   -0.5495    4.0984 H         1 <0>         0.1326
     44 H15        12.0697   -1.4363    8.0693 H         1 <0>         0.1372
     45 H16        12.7284    0.9012    8.4120 H         1 <0>         0.1306
@<TRIPOS>BOND
     1    1    5 2
     2    1    2 1
     3    1   31 1
     4    2    3 2
     5    2   32 1
     6    3    4 1
     7    3    6 1
     8    4    5 1
     9    5   33 1
    10    6    7 2
    11    6   34 1
    12    7   13 1
    13    7    8 1
    14    8    9 2
    15    8   10 am
    16   10   11 am
    17   10   14 1
    18   11   12 2
    19   11   13 1
    20   14   15 1
    21   14   35 1
    22   14   36 1
    23   15   16 2
    24   15   17 am
    25   17   18 1
    26   17   37 1
    27   18   19 1
    28   18   38 1
    29   18   39 1
    30   19   20 1
    31   19   40 1
    32   19   41 1
    33   20   25 1
    34   20   21 2
    35   21   22 1
    36   21   42 1
    37   22   23 1
    38   22   24 1
    39   24   29 ar
    40   24   25 ar
    41   25   26 ar
    42   26   27 ar
    43   26   43 1
    44   27   28 ar
    45   27   30 1
    46   28   29 ar
    47   28   44 1
    48   29   45 1
@<TRIPOS>MOLECULE
ZINC16041494
   48    50     0     0     0
SMALL
USER_CHARGES
N-[(1S)-2,2,2-trichloro-1-[(oxoBLAHcarbothioyl)amino]ethyl]propanamide
@<TRIPOS>ATOM
      1 C1          4.7973    2.1996    4.4550 C.3       1 <0>        -0.1354
      2 C2          4.7398    0.6708    4.4311 C.3       1 <0>        -0.1407
      3 C3          3.3372    0.2159    4.7425 C.2       1 <0>         0.5114
      4 O1          2.4691    1.0339    4.9619 O.2       1 <0>        -0.4736
      5 N1          3.0476   -1.0999    4.7772 N.am      1 <0>        -0.7358
      6 C4          1.6842   -1.5421    5.0800 C.3       1 <0>         0.3630
      7 H1          1.1185   -0.7120    5.5031 H         1 <0>         0.1949
      8 C5          1.7330   -2.6922    6.0878 C.3       1 <0>         0.1118
      9 Cl1         2.6687   -4.0653    5.3879 Cl        1 <0>        -0.0912
     10 Cl2         2.5328   -2.1303    7.6028 Cl        1 <0>        -0.0501
     11 Cl3         0.0549   -3.2365    6.4603 Cl        1 <0>        -0.0613
     12 N2          1.0343   -1.9987    3.8490 N.pl3     1 <0>        -0.6978
     13 C6          0.1042   -1.2274    3.2519 C.2       1 <0>         0.5617
     14 S1         -0.2271    0.3387    3.8590 S.2       1 <0>        -0.5664
     15 N3         -0.5651   -1.6890    2.1770 N.pl3     1 <0>        -0.5681
     16 C7         -0.2161   -2.9806    1.5738 C.3       1 <0>         0.0987
     17 C8         -0.0283   -2.8264    0.0710 C.3       1 <0>        -0.1155
     18 H2          0.0258   -3.8228   -0.3675 H         1 <0>         0.1118
     19 C9         -1.2139   -2.0949   -0.5592 C.3       1 <0>        -0.1177
     20 C10        -1.3311   -0.7144    0.0921 C.3       1 <0>        -0.0668
     21 H3         -2.1068   -0.1308   -0.4036 H         1 <0>         0.1260
     22 C11        -1.6618   -0.9088    1.5817 C.3       1 <0>         0.1082
     23 C12        -0.0048    0.0041    0.0053 C.2       1 <0>         0.1721
     24 C13        -0.0281    1.3634    0.0164 C.2       1 <0>        -0.2168
     25 C14         1.1641    2.0957    0.0100 C.2       1 <0>        -0.0006
     26 C15         2.3505    1.4226    0.0259 C.2       1 <0>        -0.2509
     27 C16         2.3394    0.0209    0.0277 C.2       1 <0>         0.5136
     28 O2          3.3920   -0.5914    0.1116 O.2       1 <0>        -0.5581
     29 N4          1.1711   -0.6618   -0.0623 N.am      1 <0>        -0.4828
     30 C17         1.2634   -2.1068   -0.2710 C.3       1 <0>         0.0977
     31 H4          4.1112    2.6006    3.7090 H         1 <0>         0.0632
     32 H5          4.5098    2.5586    5.4432 H         1 <0>         0.0628
     33 H6          5.8117    2.5286    4.2297 H         1 <0>         0.0619
     34 H7          5.4259    0.2698    5.1772 H         1 <0>         0.0937
     35 H8          5.0272    0.3118    3.4429 H         1 <0>         0.0939
     36 H9          3.7420   -1.7541    4.6018 H         1 <0>         0.4016
     37 H10         1.2733   -2.8562    3.4636 H         1 <0>         0.3949
     38 H11        -1.0151   -3.6966    1.7662 H         1 <0>         0.0953
     39 H12         0.7093   -3.3480    2.0175 H         1 <0>         0.0789
     40 H13        -2.1289   -2.6614   -0.3860 H         1 <0>         0.0899
     41 H14        -1.0492   -1.9825   -1.6308 H         1 <0>         0.0837
     42 H15        -1.7369    0.0606    2.0743 H         1 <0>         0.1383
     43 H16        -2.6014   -1.4517    1.6850 H         1 <0>         0.0954
     44 H17        -0.9751    1.8825    0.0258 H         1 <0>         0.1437
     45 H18         1.1453    3.1754   -0.0070 H         1 <0>         0.1353
     46 H19         3.2859    1.9624    0.0365 H         1 <0>         0.1454
     47 H20         2.0639   -2.5030    0.3539 H         1 <0>         0.0935
     48 H21         1.5064   -2.2960   -1.3166 H         1 <0>         0.0876
@<TRIPOS>BOND
     1    1    2 1
     2    1   31 1
     3    1   32 1
     4    1   33 1
     5    2    3 1
     6    2   34 1
     7    2   35 1
     8    3    4 2
     9    3    5 am
    10    5    6 1
    11    5   36 1
    12    6    7 1
    13    6    8 1
    14    6   12 1
    15    8    9 1
    16    8   10 1
    17    8   11 1
    18   12   13 1
    19   12   37 1
    20   13   14 2
    21   13   15 1
    22   15   22 1
    23   15   16 1
    24   16   17 1
    25   16   38 1
    26   16   39 1
    27   17   18 1
    28   17   30 1
    29   17   19 1
    30   19   20 1
    31   19   40 1
    32   19   41 1
    33   20   21 1
    34   20   22 1
    35   20   23 1
    36   22   42 1
    37   22   43 1
    38   23   29 1
    39   23   24 2
    40   24   25 1
    41   24   44 1
    42   25   26 2
    43   25   45 1
    44   26   27 1
    45   26   46 1
    46   27   28 2
    47   27   29 am
    48   29   30 1
    49   30   47 1
    50   30   48 1
@<TRIPOS>MOLECULE
ZINC34107758
   45    47     0     0     0
SMALL
USER_CHARGES

@<TRIPOS>ATOM
      1 C1         -0.0187    1.5258    0.0104 C.3       1 <0>        -0.1523
      2 C2          0.0021   -0.0041    0.0020 C.3       1 <0>        -0.1181
      3 C3          0.7421   -0.5109    1.2415 C.3       1 <0>        -0.1320
      4 C4          0.7628   -2.0407    1.2331 C.3       1 <0>         0.0820
      5 N1          1.4714   -2.5260    2.4200 N.am      1 <0>        -0.5211
      6 C5          2.7781   -2.7189    2.3591 C.2       1 <0>         0.5450
      7 O1          3.4089   -2.5026    1.3399 O.2       1 <0>        -0.4547
      8 C6          3.4335   -3.2073    3.5836 C.2       1 <0>        -0.2456
      9 C7          4.7488   -3.4919    3.8121 C.2       1 <0>         0.1129
     10 C8          5.1608   -3.9545    5.0804 C.2       1 <0>        -0.0305
     11 C9          6.4559   -4.2734    5.4483 C.2       1 <0>        -0.1161
     12 C10         6.4058   -4.6837    6.7830 C.2       1 <0>        -0.1845
     13 C11         5.1011   -4.6032    7.1805 C.2       1 <0>         0.0631
     14 O2          4.3613   -4.1578    6.1487 O.3       1 <0>        -0.1494
     15 C12         4.5886   -4.9434    8.5220 C.ar      1 <0>         0.0283
     16 C13         5.4643   -5.3869    9.5162 C.ar      1 <0>        -0.1127
     17 C14         4.9783   -5.7027   10.7677 C.ar      1 <0>        -0.0173
     18 C15         3.6269   -5.5815   11.0397 C.ar      1 <0>        -0.6692
     19 C16         2.7537   -5.1428   10.0598 C.ar      1 <0>        -0.0110
     20 C17         3.2263   -4.8180    8.8055 C.ar      1 <0>        -0.1165
     21 S1          3.0149   -5.9883   12.6411 S.o2      1 <0>         2.7014
     22 O3          1.6406   -6.3117   12.4807 O.2       1 <0>        -0.9576
     23 O4          3.9485   -6.8930   13.2149 O.2       1 <0>        -0.9565
     24 N2          3.0727   -4.6070   13.5528 N.pl3     1 <0>        -1.2468
     25 S2          2.0336   -3.3254    4.6890 S.3       1 <0>         0.0870
     26 C18         0.7773   -2.7611    3.5524 C.2       1 <0>         0.2711
     27 S3         -0.9007   -2.5673    3.8316 S.2       1 <0>        -0.3246
     28 H1          1.0039    1.9031    0.0027 H         1 <0>         0.0538
     29 H2         -0.5459    1.8868   -0.8726 H         1 <0>         0.0590
     30 H3         -0.5289    1.8773    0.9072 H         1 <0>         0.0560
     31 H4         -1.0205   -0.3814    0.0098 H         1 <0>         0.0701
     32 H5          0.5123   -0.3556   -0.8948 H         1 <0>         0.0661
     33 H6          1.7647   -0.1336    1.2338 H         1 <0>         0.0680
     34 H7          0.2319   -0.1594    2.1383 H         1 <0>         0.0744
     35 H8         -0.2598   -2.4180    1.2409 H         1 <0>         0.1142
     36 H9          1.2730   -2.3923    0.3363 H         1 <0>         0.1053
     37 H10         5.4742   -3.3630    3.0225 H         1 <0>         0.1879
     38 H11         7.3356   -4.2165    4.8243 H         1 <0>         0.1716
     39 H12         7.2416   -5.0044    7.3872 H         1 <0>         0.1672
     40 H13         6.5191   -5.4826    9.3051 H         1 <0>         0.1435
     41 H14         5.6541   -6.0456   11.5372 H         1 <0>         0.1527
     42 H15         1.7002   -5.0507   10.2791 H         1 <0>         0.1518
     43 H16         2.5443   -4.4716    8.0430 H         1 <0>         0.1431
     44 H17         2.4281   -4.4681   14.2642 H         1 <0>         0.4236
     45 H18         3.7512   -3.9369   13.3754 H         1 <0>         0.4176
@<TRIPOS>BOND
     1    1    2 1
     2    1   28 1
     3    1   29 1
     4    1   30 1
     5    2    3 1
     6    2   31 1
     7    2   32 1
     8    3    4 1
     9    3   33 1
    10    3   34 1
    11    4    5 1
    12    4   35 1
    13    4   36 1
    14    5   26 1
    15    5    6 am
    16    6    7 2
    17    6    8 1
    18    8    9 2
    19    8   25 1
    20    9   10 1
    21    9   37 1
    22   10   14 1
    23   10   11 2
    24   11   12 1
    25   11   38 1
    26   12   13 2
    27   12   39 1
    28   13   14 1
    29   13   15 1
    30   15   20 ar
    31   15   16 ar
    32   16   17 ar
    33   16   40 1
    34   17   18 ar
    35   17   41 1
    36   18   19 ar
    37   18   21 1
    38   19   20 ar
    39   19   42 1
    40   20   43 1
    41   21   22 2
    42   21   23 2
    43   21   24 1
    44   24   44 1
    45   24   45 1
    46   25   26 1
    47   26   27 2
@<TRIPOS>MOLECULE
ZINC40167785
   43    46     0     0     0
SMALL
USER_CHARGES

@<TRIPOS>ATOM
      1 C1          0.1609    0.9984   -2.2345 C.ar      1 <0>        -0.0948
      2 C2          1.3419    1.7178   -2.2546 C.ar      1 <0>        -0.0989
      3 C3          2.5252    1.1341   -1.8376 C.ar      1 <0>        -0.0669
      4 C4          2.5293   -0.1853   -1.3941 C.ar      1 <0>        -0.1214
      5 C5          1.3286   -0.9166   -1.3732 C.ar      1 <0>        -0.1169
      6 C6          0.1471   -0.3141   -1.7967 C.ar      1 <0>        -0.0681
      7 C7          1.3243   -2.3180   -0.9043 C.2       1 <0>         0.4370
      8 O1          0.2872   -2.9509   -0.8861 O.2       1 <0>        -0.4242
      9 C8          2.5842   -2.9482   -0.4581 C.ar      1 <0>        -0.1136
     10 C9          2.5904   -4.2667   -0.0158 C.ar      1 <0>        -0.0572
     11 C10         3.7745   -4.8543    0.4021 C.ar      1 <0>        -0.0854
     12 C11         4.9554   -4.1425    0.3841 C.ar      1 <0>        -0.0534
     13 C12         4.9735   -2.8196   -0.0552 C.ar      1 <0>         0.1861
     14 C13         3.7850   -2.2140   -0.4799 C.ar      1 <0>        -0.1296
     15 C14         3.7889   -0.8170   -0.9473 C.2       1 <0>         0.4430
     16 O2          4.8267   -0.1842   -0.9650 O.2       1 <0>        -0.4463
     17 N1          6.1656   -2.1053   -0.0709 N.pl3     1 <0>        -0.6189
     18 C15         7.2809   -2.6666   -0.5784 C.2       1 <0>         0.5595
     19 S1          7.2003   -4.2028   -1.3298 S.2       1 <0>        -0.5986
     20 N2          8.4596   -2.0186   -0.4945 N.pl3     1 <0>        -0.6669
     21 C16         9.6719   -2.6287   -1.0461 C.3       1 <0>         0.1353
     22 H1          9.6218   -3.7099   -0.9176 H         1 <0>         0.1612
     23 C17         9.7720   -2.2949   -2.5608 C.3       1 <0>        -0.5866
     24 S2         11.5765   -2.5887   -2.8219 S.o2      1 <0>         2.3770
     25 O3         11.8052   -3.9824   -2.9787 O.2       1 <0>        -0.9076
     26 O4         12.0603   -1.6823   -3.8035 O.2       1 <0>        -0.9170
     27 C18        12.1721   -2.0604   -1.1618 C.3       1 <0>        -0.5897
     28 C19        10.8930   -2.0874   -0.3040 C.3       1 <0>        -0.0176
     29 H2         11.0744   -2.7109    0.5715 H         1 <0>         0.1426
     30 Cl1        10.5342   -0.4105    0.2529 Cl        1 <0>        -0.1455
     31 H3         -0.7574    1.4656   -2.5585 H         1 <0>         0.1403
     32 H4          1.3408    2.7416   -2.5984 H         1 <0>         0.1395
     33 H5          3.4441    1.7012   -1.8565 H         1 <0>         0.1428
     34 H6         -0.7787   -0.8700   -1.7832 H         1 <0>         0.1459
     35 H7          1.6713   -4.8336    0.0026 H         1 <0>         0.1488
     36 H8          3.7719   -5.8784    0.7450 H         1 <0>         0.1476
     37 H9          5.8709   -4.6123    0.7123 H         1 <0>         0.1530
     38 H10         6.1950   -1.2028    0.2833 H         1 <0>         0.4182
     39 H11         8.5053   -1.1482   -0.0687 H         1 <0>         0.4074
     40 H12         9.1678   -2.9771   -3.1588 H         1 <0>         0.1674
     41 H13         9.5061   -1.2563   -2.7573 H         1 <0>         0.1475
     42 H14        12.9102   -2.7636   -0.7761 H         1 <0>         0.1629
     43 H15        12.5848   -1.0524   -1.2040 H         1 <0>         0.1621
@<TRIPOS>BOND
     1    1    6 ar
     2    1    2 ar
     3    1   31 1
     4    2    3 ar
     5    2   32 1
     6    3    4 ar
     7    3   33 1
     8    4   15 1
     9    4    5 ar
    10    5    6 ar
    11    5    7 1
    12    6   34 1
    13    7    8 2
    14    7    9 1
    15    9   14 ar
    16    9   10 ar
    17   10   11 ar
    18   10   35 1
    19   11   12 ar
    20   11   36 1
    21   12   13 ar
    22   12   37 1
    23   13   14 ar
    24   13   17 1
    25   14   15 1
    26   15   16 2
    27   17   18 1
    28   17   38 1
    29   18   19 2
    30   18   20 1
    31   20   21 1
    32   20   39 1
    33   21   22 1
    34   21   28 1
    35   21   23 1
    36   23   24 1
    37   23   40 1
    38   23   41 1
    39   24   25 2
    40   24   26 2
    41   24   27 1
    42   27   28 1
    43   27   42 1
    44   27   43 1
    45   28   29 1
    46   28   30 1
@<TRIPOS>MOLECULE
ZINC58015273
   41    43     0     0     0
SMALL
USER_CHARGES

@<TRIPOS>ATOM
      1 C1         -0.0649    0.1178    0.1507 C.2       1 <0>        -0.1978
      2 C2          1.1782   -0.4427   -0.1601 C.2       1 <0>        -0.1275
      3 C3          2.0797    0.5967   -0.2566 C.2       1 <0>        -0.0520
      4 N1          1.3929    1.7658   -0.0084 N.pl3     1 <0>        -0.3704
      5 C4          0.0932    1.4604    0.2371 C.2       1 <0>         0.0285
      6 C5          1.9442    3.0537   -0.0089 C.ar      1 <0>         0.1328
      7 C6          3.0213    3.3496    0.8160 C.ar      1 <0>        -0.0701
      8 C7          3.5630    4.6200    0.8131 C.ar      1 <0>        -0.0716
      9 C8          3.0333    5.5974   -0.0103 C.ar      1 <0>        -0.0925
     10 C9          1.9599    5.3055   -0.8328 C.ar      1 <0>        -0.0753
     11 C10         1.4181    4.0351   -0.8385 C.ar      1 <0>        -0.1065
     12 I1          3.8576    7.5234   -0.0111 I         1 <0>        -0.0316
     13 C11         3.5078    0.4794   -0.5667 C.2       1 <0>         0.5886
     14 O1          4.1801    1.4813   -0.7265 O.2       1 <0>        -0.5324
     15 N2          4.0763   -0.7378   -0.6747 N.am      1 <0>        -0.7177
     16 C12         5.5223   -0.8555   -0.8783 C.3       1 <0>         0.1128
     17 C13         5.9061   -2.3340   -0.9669 C.3       1 <0>         0.1079
     18 N3          7.3521   -2.4517   -1.1705 N.am      1 <0>        -0.7191
     19 C14         7.9205   -3.6689   -1.2786 C.2       1 <0>         0.6091
     20 O2          7.2326   -4.6702   -1.2070 O.2       1 <0>        -0.5150
     21 C15         9.3681   -3.7868   -1.4824 C.2       1 <0>        -0.0882
     22 C16        10.0677   -4.9521   -1.6129 C.2       1 <0>        -0.1122
     23 C17        11.4140   -4.5968   -1.7899 C.2       1 <0>        -0.2254
     24 C18        11.4764   -3.2473   -1.7600 C.2       1 <0>         0.0002
     25 O3         10.2410   -2.7627   -1.5796 O.3       1 <0>        -0.1655
     26 H1         -0.9887   -0.4236    0.2921 H         1 <0>         0.1504
     27 H2          1.3921   -1.4923   -0.2981 H         1 <0>         0.1496
     28 H3         -0.6873    2.1716    0.4636 H         1 <0>         0.1736
     29 H4          3.4347    2.5872    1.4595 H         1 <0>         0.1319
     30 H5          4.4007    4.8508    1.4544 H         1 <0>         0.1372
     31 H6          1.5481    6.0705   -1.4743 H         1 <0>         0.1388
     32 H7          0.5833    3.8065   -1.4843 H         1 <0>         0.1378
     33 H8          3.5279   -1.5359   -0.6176 H         1 <0>         0.4064
     34 H9          5.8011   -0.3517   -1.8037 H         1 <0>         0.0796
     35 H10         6.0458   -0.3938   -0.0412 H         1 <0>         0.0784
     36 H11         5.6273   -2.8378   -0.0415 H         1 <0>         0.0817
     37 H12         5.3825   -2.7957   -1.8040 H         1 <0>         0.0816
     38 H13         7.9004   -1.6536   -1.2276 H         1 <0>         0.4096
     39 H14         9.6635   -5.9532   -1.5854 H         1 <0>         0.1620
     40 H15        12.2441   -5.2746   -1.9244 H         1 <0>         0.1595
     41 H16        12.3742   -2.6566   -1.8674 H         1 <0>         0.2130
@<TRIPOS>BOND
     1    1    5 2
     2    1    2 1
     3    1   26 1
     4    2    3 2
     5    2   27 1
     6    3    4 1
     7    3   13 1
     8    4    5 1
     9    4    6 1
    10    5   28 1
    11    6   11 ar
    12    6    7 ar
    13    7    8 ar
    14    7   29 1
    15    8    9 ar
    16    8   30 1
    17    9   10 ar
    18    9   12 1
    19   10   11 ar
    20   10   31 1
    21   11   32 1
    22   13   14 2
    23   13   15 am
    24   15   16 1
    25   15   33 1
    26   16   17 1
    27   16   34 1
    28   16   35 1
    29   17   18 1
    30   17   36 1
    31   17   37 1
    32   18   19 am
    33   18   38 1
    34   19   20 2
    35   19   21 1
    36   21   25 1
    37   21   22 2
    38   22   23 1
    39   22   39 1
    40   23   24 2
    41   23   40 1
    42   24   25 1
    43   24   41 1
@<TRIPOS>MOLECULE
ZINC28566247
   47    48     0     0     0
SMALL
USER_CHARGES
(2S,4S)-1-[(2R)-2-amino-3-methyl-3-(4-pyridylmethylsulfonyl)butanoyl]-4-fluoro-pyrrolidine-2-carbonitrile
@<TRIPOS>ATOM
      1 C1          0.4698   -0.7707    3.8552 C.3       1 <0>        -0.1705
      2 C2          1.3026   -0.1584    2.7271 C.3       1 <0>        -0.5709
      3 C3          0.8937   -0.7859    1.3930 C.3       1 <0>        -0.1619
      4 C4          1.0604    1.3514    2.6761 C.3       1 <0>         0.0373
      5 H1          1.7060    1.8285    1.9240 H         1 <0>         0.1735
      6 C5         -0.3861    1.6173    2.3473 C.2       1 <0>         0.5361
      7 O1         -1.2095    1.6735    3.2360 O.2       1 <0>        -0.4904
      8 N1         -0.7646    1.7927    1.0658 N.am      1 <0>        -0.5944
      9 C6          0.1406    1.8624   -0.0957 C.3       1 <0>         0.0519
     10 C7         -0.6445    2.6606   -1.1663 C.3       1 <0>         0.0863
     11 H2         -0.5006    3.7511   -1.1732 H         1 <0>         0.1268
     12 C8         -2.0910    2.1474   -0.9388 C.3       1 <0>        -0.1494
     13 C9         -2.1501    1.9468    0.5902 C.3       1 <0>         0.2497
     14 H3         -2.6307    2.7828    1.1195 H         1 <0>         0.1434
     15 C10        -2.9254    0.7362    0.9066 C.1       1 <0>         0.1705
     16 N2         -3.5237   -0.1981    1.1509 N.1       1 <0>        -0.3738
     17 F1         -0.1976    2.3460   -2.4541 F         1 <0>        -0.1954
     18 N3          1.3828    1.9435    3.9813 N.4       1 <0>        -0.6869
     19 S1          3.0619   -0.4787    3.0320 S.o2      1 <0>         2.3967
     20 O2          3.8041   -0.0117    1.9139 O.2       1 <0>        -0.8924
     21 O3          3.3884    0.0033    4.3283 O.2       1 <0>        -0.9244
     22 C11         3.1409   -2.2908    3.0569 C.3       1 <0>        -0.5435
     23 C12         4.5616   -2.7283    3.3042 C.ar      1 <0>        -0.0660
     24 C13         5.4311   -2.9472    2.2467 C.ar      1 <0>        -0.1533
     25 C14         6.7284   -3.3429    2.5123 C.ar      1 <0>         0.1104
     26 N4          7.1383   -3.5223    3.7528 N.ar      1 <0>        -0.4655
     27 C15         6.3375   -3.3288    4.7825 C.ar      1 <0>         0.1094
     28 C16         5.0286   -2.9270    4.5945 C.ar      1 <0>        -0.1544
     29 H4          0.7638   -0.3195    4.8144 H         1 <0>         0.0827
     30 H5          0.6440   -1.8562    3.8919 H         1 <0>         0.1055
     31 H6         -0.5970   -0.5765    3.6703 H         1 <0>         0.1071
     32 H7          1.4924   -0.3457    0.5820 H         1 <0>         0.0995
     33 H8         -0.1731   -0.5917    1.2082 H         1 <0>         0.0942
     34 H9          1.0678   -1.8714    1.4297 H         1 <0>         0.1026
     35 H10         1.0696    2.3754    0.1937 H         1 <0>         0.1065
     36 H11         0.3757    0.8441   -0.4390 H         1 <0>         0.1087
     37 H12        -2.8080    2.9019   -1.2947 H         1 <0>         0.1280
     38 H13        -2.2391    1.2099   -1.4947 H         1 <0>         0.1125
     39 H14         1.2086    3.0290    3.9446 H         1 <0>         0.4716
     40 H15         2.4386    1.7494    4.2212 H         1 <0>         0.4638
     41 H16         2.4940   -2.6750    3.8593 H         1 <0>         0.1593
     42 H17         2.7987   -2.6861    2.0891 H         1 <0>         0.1609
     43 H18         5.1001   -2.8064    1.2284 H         1 <0>         0.1465
     44 H19         7.4133   -3.5108    1.6943 H         1 <0>         0.1693
     45 H20         6.7090   -3.4858    5.7844 H         1 <0>         0.1686
     46 H21         4.3779   -2.7696    5.4419 H         1 <0>         0.1453
     47 H22         0.7425    1.4954    4.7554 H         1 <0>         0.4684
@<TRIPOS>BOND
     1    1    2 1
     2    1   29 1
     3    1   30 1
     4    1   31 1
     5    2    3 1
     6    2    4 1
     7    2   19 1
     8    3   32 1
     9    3   33 1
    10    3   34 1
    11    4    5 1
    12    4    6 1
    13    4   18 1
    14    6    7 2
    15    6    8 am
    16    8   13 1
    17    8    9 1
    18    9   10 1
    19    9   35 1
    20    9   36 1
    21   10   11 1
    22   10   12 1
    23   10   17 1
    24   12   13 1
    25   12   37 1
    26   12   38 1
    27   13   14 1
    28   13   15 1
    29   15   16 3
    30   18   39 1
    31   18   40 1
    32   18   47 1
    33   19   20 2
    34   19   21 2
    35   19   22 1
    36   22   23 1
    37   22   41 1
    38   22   42 1
    39   23   28 ar
    40   23   24 ar
    41   24   25 ar
    42   24   43 1
    43   25   26 ar
    44   25   44 1
    45   26   27 ar
    46   27   28 ar
    47   27   45 1
    48   28   46 1
@<TRIPOS>MOLECULE
ZINC39625976
   66    69     0     0     0
SMALL
USER_CHARGES

@<TRIPOS>ATOM
      1 C1         -0.2301    1.5418   -0.1618 C.3       1 <0>        -0.1372
      2 C2          1.1903    2.1002   -0.2821 C.3       1 <0>         0.0588
      3 O1          1.8036    1.5873   -1.4665 O.3       1 <0>        -0.3770
      4 C3          1.9306    0.1641   -1.4884 C.3       1 <0>         0.0612
      5 C4          0.5399   -0.4721   -1.4166 C.3       1 <0>        -0.1530
      6 C5         -0.1692    0.0113   -0.1478 C.3       1 <0>        -0.1047
      7 C6         -1.5678   -0.5485   -0.1076 C.2       1 <0>         0.5472
      8 O2         -2.5209    0.2014   -0.0916 O.2       1 <0>        -0.5247
      9 N1         -1.7595   -1.8824   -0.0894 N.am      1 <0>        -0.6232
     10 C7         -0.7298   -2.9482   -0.0976 C.3       1 <0>         0.1089
     11 C8         -1.2721   -4.0223    0.8719 C.3       1 <0>        -0.1143
     12 H1         -0.8538   -3.8800    1.8683 H         1 <0>         0.1118
     13 C9         -2.7936   -3.7995    0.8930 C.3       1 <0>        -0.0716
     14 C10        -3.0479   -2.6148   -0.0502 C.3       1 <0>         0.1067
     15 C11        -3.2572   -3.4514    2.3042 C.3       1 <0>        -0.1337
     16 C12        -4.7800   -3.2907    2.3111 C.3       1 <0>        -0.0112
     17 N2         -5.4075   -4.5396    1.8624 N.4       1 <0>        -0.5044
     18 C13        -5.0296   -4.8187    0.4718 C.3       1 <0>        -0.0080
     19 C14        -3.5173   -5.0436    0.3870 C.3       1 <0>        -0.1462
     20 C15        -0.9485   -5.4023    0.3602 C.2       1 <0>         0.5206
     21 O3         -0.8701   -5.6036   -0.8332 O.2       1 <0>        -0.5174
     22 N3         -0.7462   -6.4128    1.2288 N.am      1 <0>        -0.7272
     23 C16        -0.4316   -7.7544    0.7313 C.3       1 <0>         0.1180
     24 C17        -0.2509   -8.7076    1.9144 C.3       1 <0>         0.0452
     25 N4          0.0646  -10.0528    1.4156 N.3       1 <0>        -0.5334
     26 C18        -1.0759  -10.6247    0.6852 C.3       1 <0>         0.0146
     27 C19        -0.6846  -11.9981    0.1333 C.3       1 <0>         0.0604
     28 O4         -0.2571  -12.8353    1.2110 O.3       1 <0>        -0.3822
     29 C20         0.8526  -12.3089    1.9437 C.3       1 <0>         0.0607
     30 C21         0.4769  -10.9387    2.5140 C.3       1 <0>         0.0196
     31 H2         -0.6838    1.8968    0.7636 H         1 <0>         0.0819
     32 H3         -0.8256    1.8750   -1.0117 H         1 <0>         0.0830
     33 H4          1.1499    3.1881   -0.3355 H         1 <0>         0.1028
     34 H5          1.7737    1.8003    0.5884 H         1 <0>         0.0533
     35 H6          2.4234   -0.1427   -2.4110 H         1 <0>         0.1018
     36 H7          2.5237   -0.1612   -0.6337 H         1 <0>         0.0542
     37 H8         -0.0401   -0.1796   -2.2919 H         1 <0>         0.0806
     38 H9          0.6368   -1.5574   -1.3887 H         1 <0>         0.0804
     39 H10         0.3844   -0.3236    0.7294 H         1 <0>         0.0999
     40 H11        -0.6192   -3.3620   -1.0999 H         1 <0>         0.1020
     41 H12         0.2230   -2.5588    0.2611 H         1 <0>         0.0951
     42 H13        -3.8367   -1.9760    0.3469 H         1 <0>         0.0891
     43 H14        -3.3121   -2.9734   -1.0450 H         1 <0>         0.0843
     44 H15        -2.9725   -4.2507    2.9884 H         1 <0>         0.0957
     45 H16        -2.7914   -2.5180    2.6203 H         1 <0>         0.1178
     46 H17        -5.1161   -3.0581    3.3215 H         1 <0>         0.1401
     47 H18        -5.0627   -2.4804    1.6390 H         1 <0>         0.1345
     48 H19        -5.1010   -5.2991    2.4517 H         1 <0>         0.4271
     49 H20        -5.5495   -5.7123    0.1265 H         1 <0>         0.1395
     50 H21        -5.3065   -3.9722   -0.1566 H         1 <0>         0.1339
     51 H22        -3.2350   -5.2328   -0.6487 H         1 <0>         0.1271
     52 H23        -3.2418   -5.9003    1.0021 H         1 <0>         0.0951
     53 H24        -0.8088   -6.2518    2.1832 H         1 <0>         0.4002
     54 H25        -1.2471   -8.1085    0.1007 H         1 <0>         0.0720
     55 H26         0.4892   -7.7193    0.1490 H         1 <0>         0.0847
     56 H27         0.5646   -8.3534    2.5450 H         1 <0>         0.0853
     57 H28        -1.1716   -8.7426    2.4967 H         1 <0>         0.0395
     58 H29        -1.9241  -10.7324    1.3614 H         1 <0>         0.0437
     59 H30        -1.3480   -9.9653   -0.1389 H         1 <0>         0.0877
     60 H31        -1.5448  -12.4507   -0.3600 H         1 <0>         0.1012
     61 H32         0.1285  -11.8840   -0.5837 H         1 <0>         0.0637
     62 H33         1.1042  -12.9863    2.7598 H         1 <0>         0.1035
     63 H34         1.7104  -12.2039    1.2794 H         1 <0>         0.0640
     64 H35         1.3383  -10.5084    3.0248 H         1 <0>         0.0904
     65 H36        -0.3464  -11.0514    3.2194 H         1 <0>         0.0457
     66 H37        -6.4107   -4.4521    1.9258 H         1 <0>         0.4348
@<TRIPOS>BOND
     1    1    6 1
     2    1    2 1
     3    1   31 1
     4    1   32 1
     5    2    3 1
     6    2   33 1
     7    2   34 1
     8    3    4 1
     9    4    5 1
    10    4   35 1
    11    4   36 1
    12    5    6 1
    13    5   37 1
    14    5   38 1
    15    6    7 1
    16    6   39 1
    17    7    8 2
    18    7    9 am
    19    9   14 1
    20    9   10 1
    21   10   11 1
    22   10   40 1
    23   10   41 1
    24   11   12 1
    25   11   13 1
    26   11   20 1
    27   13   19 1
    28   13   14 1
    29   13   15 1
    30   14   42 1
    31   14   43 1
    32   15   16 1
    33   15   44 1
    34   15   45 1
    35   16   17 1
    36   16   46 1
    37   16   47 1
    38   17   18 1
    39   17   48 1
    40   17   66 1
    41   18   19 1
    42   18   49 1
    43   18   50 1
    44   19   51 1
    45   19   52 1
    46   20   21 2
    47   20   22 am
    48   22   23 1
    49   22   53 1
    50   23   24 1
    51   23   54 1
    52   23   55 1
    53   24   25 1
    54   24   56 1
    55   24   57 1
    56   25   30 1
    57   25   26 1
    58   26   27 1
    59   26   58 1
    60   26   59 1
    61   27   28 1
    62   27   60 1
    63   27   61 1
    64   28   29 1
    65   29   30 1
    66   29   62 1
    67   29   63 1
    68   30   64 1
    69   30   65 1
@<TRIPOS>MOLECULE
ZINC39686142
   69    71     0     0     0
SMALL
USER_CHARGES

@<TRIPOS>ATOM
      1 C1         -6.2971    0.5125   -2.3904 C.3       1 <0>        -0.1386
      2 C2         -5.9288   -0.3719   -1.1974 C.3       1 <0>        -0.1159
      3 C3         -7.1134   -0.4451   -0.2319 C.3       1 <0>        -0.1429
      4 C4         -5.5915   -1.7576   -1.6846 C.2       1 <0>         0.5224
      5 O1         -6.0581   -2.1640   -2.7277 O.2       1 <0>        -0.5325
      6 N1         -4.7713   -2.5451   -0.9611 N.am      1 <0>        -0.6185
      7 C5         -4.2980   -2.1175    0.3625 C.3       1 <0>         0.1058
      8 C6         -4.6210   -3.2159    1.3802 C.3       1 <0>        -0.1423
      9 C7         -4.0278   -4.5421    0.8989 C.3       1 <0>         0.1424
     10 C8         -4.6559   -4.9268   -0.4426 C.3       1 <0>        -0.1387
     11 C9         -4.3383   -3.8504   -1.4784 C.3       1 <0>         0.1105
     12 N2         -4.3064   -5.5881    1.8861 N.am      1 <0>        -0.7254
     13 C10        -3.5057   -6.6693    1.9664 C.2       1 <0>         0.5214
     14 O2         -2.5546   -6.7762    1.2215 O.2       1 <0>        -0.5152
     15 C11        -3.7921   -7.7453    2.9819 C.3       1 <0>        -0.1147
     16 H1         -4.1701   -7.3046    3.9044 H         1 <0>         0.1143
     17 C12        -2.5177   -8.5723    3.2635 C.3       1 <0>         0.1083
     18 N3         -3.0031   -9.9623    3.4322 N.am      1 <0>        -0.6246
     19 C13        -4.0630  -10.1097    2.4060 C.3       1 <0>         0.1079
     20 C14        -4.8035   -8.7577    2.4184 C.3       1 <0>        -0.0731
     21 C15        -5.2094   -8.3661    1.0009 C.3       1 <0>        -0.1487
     22 C16        -6.2590   -9.3540    0.4839 C.3       1 <0>        -0.0081
     23 N4         -7.4281   -9.3377    1.3714 N.4       1 <0>        -0.5044
     24 C17        -7.0473   -9.8050    2.7098 C.3       1 <0>        -0.0113
     25 C18        -6.0311   -8.8361    3.3209 C.3       1 <0>        -0.1333
     26 C19        -2.5775  -10.8841    4.3185 C.2       1 <0>         0.5469
     27 O3         -3.0784  -11.9885    4.3325 O.2       1 <0>        -0.5295
     28 C20        -1.4792  -10.5424    5.2922 C.3       1 <0>        -0.1379
     29 C21        -1.1885  -11.7548    6.1791 C.3       1 <0>         0.0744
     30 O4         -0.1471  -11.4308    7.1024 O.3       1 <0>        -0.3942
     31 C22         0.2033  -12.5008    7.9823 C.3       1 <0>         0.0324
     32 H2         -6.5411    1.5147   -2.0380 H         1 <0>         0.0670
     33 H3         -5.4532    0.5646   -3.0783 H         1 <0>         0.0594
     34 H4         -7.1594    0.0882   -2.9047 H         1 <0>         0.0678
     35 H5         -5.0665    0.0523   -0.6831 H         1 <0>         0.0936
     36 H6         -7.9990   -0.7855   -0.7684 H         1 <0>         0.0640
     37 H7         -6.8843   -1.1448    0.5719 H         1 <0>         0.0559
     38 H8         -7.3008    0.5429    0.1888 H         1 <0>         0.0730
     39 H9         -3.2207   -1.9545    0.3302 H         1 <0>         0.0774
     40 H10        -4.8009   -1.1940    0.6495 H         1 <0>         0.0984
     41 H11        -4.1904   -2.9543    2.3468 H         1 <0>         0.0878
     42 H12        -5.7020   -3.3150    1.4778 H         1 <0>         0.0738
     43 H13        -2.9499   -4.4351    0.7778 H         1 <0>         0.0974
     44 H14        -4.2503   -5.8829   -0.7734 H         1 <0>         0.0790
     45 H15        -5.7367   -5.0098   -0.3278 H         1 <0>         0.0654
     46 H16        -4.8678   -4.0699   -2.4055 H         1 <0>         0.0978
     47 H17        -3.2644   -3.8318   -1.6641 H         1 <0>         0.0728
     48 H18        -5.0670   -5.5026    2.4819 H         1 <0>         0.3991
     49 H19        -1.8300   -8.5097    2.4202 H         1 <0>         0.1037
     50 H20        -2.0336   -8.2254    4.1764 H         1 <0>         0.0962
     51 H21        -3.6213  -10.2937    1.4266 H         1 <0>         0.0849
     52 H22        -4.7434  -10.9176    2.6753 H         1 <0>         0.0895
     53 H23        -5.6287   -7.3600    1.0073 H         1 <0>         0.0992
     54 H24        -4.3343   -8.3920    0.3516 H         1 <0>         0.1238
     55 H25        -6.5632   -9.0669   -0.5226 H         1 <0>         0.1397
     56 H26        -5.8336  -10.3573    0.4621 H         1 <0>         0.1338
     57 H27        -7.7876   -8.3970    1.4347 H         1 <0>         0.4273
     58 H28        -7.9326   -9.8505    3.3441 H         1 <0>         0.1401
     59 H29        -6.6031  -10.7976    2.6350 H         1 <0>         0.1342
     60 H30        -5.7354   -9.1935    4.3073 H         1 <0>         0.1183
     61 H31        -6.4802   -7.8471    3.4112 H         1 <0>         0.0960
     62 H32        -0.5782  -10.2698    4.7427 H         1 <0>         0.1077
     63 H33        -1.7930   -9.7041    5.9143 H         1 <0>         0.1052
     64 H34        -2.0895  -12.0273    6.7287 H         1 <0>         0.0580
     65 H35        -0.8747  -12.5930    5.5570 H         1 <0>         0.0594
     66 H36        -0.6689  -12.7889    8.5693 H         1 <0>         0.0444
     67 H37         0.5459  -13.3546    7.3977 H         1 <0>         0.0453
     68 H38         1.0000  -12.1752    8.6511 H         1 <0>         0.0917
     69 H39        -8.1424   -9.9433    0.9957 H         1 <0>         0.4350
@<TRIPOS>BOND
     1    1    2 1
     2    1   32 1
     3    1   33 1
     4    1   34 1
     5    2    3 1
     6    2    4 1
     7    2   35 1
     8    3   36 1
     9    3   37 1
    10    3   38 1
    11    4    5 2
    12    4    6 am
    13    6   11 1
    14    6    7 1
    15    7    8 1
    16    7   39 1
    17    7   40 1
    18    8    9 1
    19    8   41 1
    20    8   42 1
    21    9   10 1
    22    9   12 1
    23    9   43 1
    24   10   11 1
    25   10   44 1
    26   10   45 1
    27   11   46 1
    28   11   47 1
    29   12   13 am
    30   12   48 1
    31   13   14 2
    32   13   15 1
    33   15   16 1
    34   15   20 1
    35   15   17 1
    36   17   18 1
    37   17   49 1
    38   17   50 1
    39   18   19 1
    40   18   26 am
    41   19   20 1
    42   19   51 1
    43   19   52 1
    44   20   25 1
    45   20   21 1
    46   21   22 1
    47   21   53 1
    48   21   54 1
    49   22   23 1
    50   22   55 1
    51   22   56 1
    52   23   24 1
    53   23   57 1
    54   23   69 1
    55   24   25 1
    56   24   58 1
    57   24   59 1
    58   25   60 1
    59   25   61 1
    60   26   27 2
    61   26   28 1
    62   28   29 1
    63   28   62 1
    64   28   63 1
    65   29   30 1
    66   29   64 1
    67   29   65 1
    68   30   31 1
    69   31   66 1
    70   31   67 1
    71   31   68 1
@<TRIPOS>MOLECULE
ZINC55401876
   52    55     0     0     0
SMALL
USER_CHARGES

@<TRIPOS>ATOM
      1 C1         -0.6199    4.1803   -2.3809 C.3       1 <0>        -0.1583
      2 C2         -0.2764    2.8452   -1.7172 C.3       1 <0>        -0.0553
      3 C3          0.4815    1.9803   -2.6911 C.2       1 <0>         0.0484
      4 C4          1.8248    1.9480   -2.8348 C.2       1 <0>        -0.2487
      5 C5          2.1101    1.0134   -3.8424 C.2       1 <0>        -0.1093
      6 C6          0.9115    0.5166   -4.2678 C.2       1 <0>        -0.0368
      7 O1         -0.0650    1.1128   -3.5528 O.3       1 <0>        -0.1532
      8 C7          0.7195   -0.4917   -5.3153 C.2       1 <0>         0.5704
      9 O2          1.6684   -0.8712   -5.9759 O.2       1 <0>        -0.3884
     10 N1         -0.5080   -0.9982   -5.5463 N.am      1 <0>        -0.5967
     11 C8         -1.6840   -0.4897   -4.8174 C.3       1 <0>         0.1680
     12 C9         -2.4965   -1.6874   -4.3857 C.2       1 <0>        -0.0073
     13 C10        -2.2757   -2.9429   -4.8312 C.2       1 <0>         0.0925
     14 N2         -3.1985   -3.7453   -4.2310 N.pl3     1 <0>        -0.5023
     15 C11        -3.9533   -2.9545   -3.4339 C.cat     1 <0>         0.2884
     16 N3         -3.5236   -1.7235   -3.5341 N.pl3     1 <0>        -0.4614
     17 H1         -3.2962   -4.7027   -4.3525 H         1 <0>         0.4661
     18 C12        -1.1971   -3.3324   -5.8077 C.3       1 <0>        -0.0657
     19 C13        -0.7077   -2.0674   -6.5360 C.3       1 <0>         0.0749
     20 H2         -1.4528   -1.7531   -7.2668 H         1 <0>         0.0890
     21 C14         0.5956   -2.3567   -7.2351 C.2       1 <0>         0.5093
     22 O3          1.5396   -2.8023   -6.6052 O.co2     1 <0>        -0.6522
     23 O4          0.7060   -2.1451   -8.4308 O.co2     1 <0>        -0.6685
     24 C15         2.8278    2.7626   -2.0593 C.3       1 <0>         0.0792
     25 N4          3.0513    2.1432   -0.7462 N.4       1 <0>        -0.3948
     26 C16         3.7619    0.8485   -0.9048 C.3       1 <0>        -0.0042
     27 C17         4.4025    0.6227    0.4877 C.3       1 <0>        -0.1451
     28 C18         4.8250    2.0488    0.9092 C.3       1 <0>        -0.1445
     29 C19         3.9411    2.9936    0.0740 C.3       1 <0>        -0.0096
     30 H3          0.2992    4.6860   -2.6769 H         1 <0>         0.0643
     31 H4         -1.2355    4.0001   -3.2622 H         1 <0>         0.0697
     32 H5         -1.1680    4.8059   -1.6764 H         1 <0>         0.0789
     33 H6          0.3392    3.0254   -0.8359 H         1 <0>         0.0856
     34 H7         -1.1955    2.3396   -1.4211 H         1 <0>         0.0960
     35 H8          3.0881    0.7404   -4.2102 H         1 <0>         0.1727
     36 H9         -1.3624    0.0752   -3.9424 H         1 <0>         0.1248
     37 H10        -2.2791    0.1473   -5.4718 H         1 <0>         0.1069
     38 H11        -4.7757   -3.2853   -2.8169 H         1 <0>         0.2673
     39 H12        -0.3671   -3.7921   -5.2711 H         1 <0>         0.1217
     40 H13        -1.5998   -4.0375   -6.5348 H         1 <0>         0.1118
     41 H14         3.7686    2.7992   -2.6086 H         1 <0>         0.1425
     42 H15         2.4467    3.7747   -1.9235 H         1 <0>         0.1367
     43 H16         3.0582    0.0496   -1.1387 H         1 <0>         0.1320
     44 H17         4.5303    0.9232   -1.6743 H         1 <0>         0.1367
     45 H18         3.6724    0.2143    1.1865 H         1 <0>         0.0952
     46 H19         5.2718   -0.0303    0.4110 H         1 <0>         0.1176
     47 H20         4.6401    2.1994    1.9728 H         1 <0>         0.1044
     48 H21         5.8777    2.2147    0.6803 H         1 <0>         0.1052
     49 H22         4.5648    3.6106   -0.5727 H         1 <0>         0.1333
     50 H23         3.3463    3.6255    0.7336 H         1 <0>         0.1317
     51 H24         2.1713    2.0025   -0.2731 H         1 <0>         0.4195
     52 H25        -3.8922   -0.9590   -3.0645 H         1 <0>         0.4615
@<TRIPOS>BOND
     1    1    2 1
     2    1   30 1
     3    1   31 1
     4    1   32 1
     5    2    3 1
     6    2   33 1
     7    2   34 1
     8    3    7 1
     9    3    4 2
    10    4    5 1
    11    4   24 1
    12    5    6 2
    13    5   35 1
    14    6    7 1
    15    6    8 1
    16    8    9 2
    17    8   10 am
    18   10   19 1
    19   10   11 1
    20   11   36 1
    21   11   37 1
    22   11   12 1
    23   12   16 1
    24   12   13 2
    25   13   18 1
    26   13   14 1
    27   14   15 1
    28   14   17 1
    29   15   38 1
    30   15   16 2
    31   16   52 1
    32   18   19 1
    33   18   39 1
    34   18   40 1
    35   19   20 1
    36   19   21 1
    37   21   22 2
    38   21   23 1
    39   24   25 1
    40   24   41 1
    41   24   42 1
    42   25   29 1
    43   25   26 1
    44   25   51 1
    45   26   27 1
    46   26   43 1
    47   26   44 1
    48   27   28 1
    49   27   45 1
    50   27   46 1
    51   28   29 1
    52   28   47 1
    53   28   48 1
    54   29   49 1
    55   29   50 1
@<TRIPOS>MOLECULE
ZINC66892885
   50    51     0     0     0
SMALL
USER_CHARGES

@<TRIPOS>ATOM
      1 C1         -0.0993    1.3946    0.0150 C.3       1 <0>        -0.1345
      2 C2          1.2835    2.0426   -0.1000 C.3       1 <0>        -0.1449
      3 C3          2.0104    1.4680   -1.3177 C.3       1 <0>        -0.0178
      4 N1          2.1602    0.0161   -1.1625 N.4       1 <0>        -0.3569
      5 C4          0.8378   -0.6198   -1.1236 C.3       1 <0>         0.0053
      6 H1          0.2856   -0.3642   -2.0280 H         1 <0>         0.1607
      7 C5          0.0658   -0.1254    0.1015 C.3       1 <0>        -0.1337
      8 C6          1.0025   -2.1155   -1.0422 C.2       1 <0>         0.5025
      9 O1          2.0147   -2.5894   -0.5713 O.2       1 <0>        -0.5206
     10 N2          0.0250   -2.9266   -1.4928 N.am      1 <0>        -0.5882
     11 C7         -1.1603   -2.3796   -2.1719 C.3       1 <0>         0.0565
     12 C8         -1.3578   -3.1407   -3.4878 C.3       1 <0>         0.0456
     13 O2         -1.3702   -4.5453   -3.2219 O.3       1 <0>        -0.3675
     14 C9         -0.1478   -5.0488   -2.6779 C.3       1 <0>         0.0462
     15 C10         0.1143   -4.3859   -1.3255 C.3       1 <0>         0.0708
     16 C11         2.9264   -0.5196   -2.2956 C.3       1 <0>        -0.0402
     17 C12         4.3416   -0.0055   -2.2330 C.2       1 <0>         0.5224
     18 O3          4.6786    0.7340   -1.3334 O.2       1 <0>        -0.4478
     19 N3          5.2326   -0.3678   -3.1771 N.am      1 <0>        -0.6738
     20 C13         6.4982    0.0920   -3.1211 C.2       1 <0>         0.7053
     21 O4          6.8361    0.8334   -2.2192 O.2       1 <0>        -0.5070
     22 N4          7.3892   -0.2703   -4.0652 N.am      1 <0>        -0.7284
     23 C14         8.7650    0.2295   -4.0043 C.3       1 <0>         0.0916
     24 C15         9.5630   -0.3284   -5.1845 C.3       1 <0>         0.4504
     25 F1          8.9704    0.0819   -6.3836 F         1 <0>        -0.1762
     26 F2         10.8768    0.1489   -5.1264 F         1 <0>        -0.1637
     27 F3          9.5714   -1.7260   -5.1228 F         1 <0>        -0.1758
     28 H2         -0.5990    1.7587    0.9127 H         1 <0>         0.1045
     29 H3         -0.6943    1.6472   -0.8626 H         1 <0>         0.0867
     30 H4          1.1716    3.1204   -0.2180 H         1 <0>         0.1201
     31 H5          1.8600    1.8323    0.8008 H         1 <0>         0.0937
     32 H6          1.4332    1.6790   -2.2179 H         1 <0>         0.1314
     33 H7          2.9952    1.9274   -1.4026 H         1 <0>         0.1490
     34 H8          0.6171   -0.3807    1.0065 H         1 <0>         0.1002
     35 H9         -0.9164   -0.5973    0.1276 H         1 <0>         0.1189
     36 H10        -2.0381   -2.5076   -1.5385 H         1 <0>         0.1006
     37 H11        -1.0082   -1.3204   -2.3797 H         1 <0>         0.0940
     38 H12        -2.3054   -2.8473   -3.9394 H         1 <0>         0.1189
     39 H13        -0.5406   -2.9066   -4.1700 H         1 <0>         0.0597
     40 H14        -0.2249   -6.1282   -2.5468 H         1 <0>         0.1201
     41 H15         0.6738   -4.8216   -3.3572 H         1 <0>         0.0602
     42 H16         1.1101   -4.6547   -0.9731 H         1 <0>         0.1118
     43 H17        -0.6329   -4.7193   -0.6054 H         1 <0>         0.0942
     44 H18         2.9329   -1.6085   -2.2475 H         1 <0>         0.1693
     45 H19         2.4647   -0.1999   -3.2299 H         1 <0>         0.1669
     46 H20         4.9629   -0.9594   -3.8969 H         1 <0>         0.4211
     47 H21         7.1196   -0.8619   -4.7850 H         1 <0>         0.4108
     48 H22         8.7585    1.3184   -4.0525 H         1 <0>         0.1247
     49 H23         9.2267   -0.0901   -3.0701 H         1 <0>         0.1246
     50 H24         2.6521   -0.1804   -0.3037 H         1 <0>         0.4382
@<TRIPOS>BOND
     1    1    7 1
     2    1    2 1
     3    1   28 1
     4    1   29 1
     5    2    3 1
     6    2   30 1
     7    2   31 1
     8    3    4 1
     9    3   32 1
    10    3   33 1
    11    4    5 1
    12    4   16 1
    13    4   50 1
    14    5    6 1
    15    5    7 1
    16    5    8 1
    17    7   34 1
    18    7   35 1
    19    8    9 2
    20    8   10 am
    21   10   15 1
    22   10   11 1
    23   11   12 1
    24   11   36 1
    25   11   37 1
    26   12   13 1
    27   12   38 1
    28   12   39 1
    29   13   14 1
    30   14   15 1
    31   14   40 1
    32   14   41 1
    33   15   42 1
    34   15   43 1
    35   16   17 1
    36   16   44 1
    37   16   45 1
    38   17   18 2
    39   17   19 am
    40   19   20 am
    41   19   46 1
    42   20   21 2
    43   20   22 am
    44   22   23 1
    45   22   47 1
    46   23   24 1
    47   23   48 1
    48   23   49 1
    49   24   25 1
    50   24   26 1
    51   24   27 1
@<TRIPOS>MOLECULE
ZINC01740072
   34    36     0     0     0
SMALL
USER_CHARGES
N-(1H-indol-3-ylmethyleneamino)tetrahydrofuran-2-carboxamide
@<TRIPOS>ATOM
      1 C1         -0.6140    5.6414    0.0383 C.ar      1 <0>        -0.1437
      2 C2          0.7732    5.5995    0.0248 C.ar      1 <0>        -0.0960
      3 C3          1.4389    4.3937    0.0119 C.ar      1 <0>        -0.1324
      4 C4          0.7188    3.2030    0.0124 C.ar      1 <0>         0.0869
      5 C5         -0.6850    3.2470    0.0261 C.ar      1 <0>        -0.0795
      6 C6         -1.3449    4.4742    0.0390 C.ar      1 <0>        -0.0604
      7 C7         -1.1355    1.8439    0.0169 C.2       1 <0>        -0.1503
      8 C8         -0.0126    1.0758    0.0080 C.2       1 <0>         0.1012
      9 N1          1.0910    1.8755    0.0017 N.pl3     1 <0>        -0.5843
     10 H1          2.0069    1.5565   -0.0090 H         1 <0>         0.4206
     11 C9         -2.5277    1.3668    0.0197 C.2       1 <0>         0.1493
     12 N2         -3.5068    2.2205    0.0281 N.2       1 <0>        -0.2367
     13 N3         -4.8321    1.7663    0.0308 N.am      1 <0>        -0.5854
     14 C10        -5.8480    2.6520    0.0395 C.2       1 <0>         0.5282
     15 O1         -5.6147    3.8427    0.0450 O.2       1 <0>        -0.4808
     16 C11        -7.2736    2.1635    0.0424 C.3       1 <0>         0.0681
     17 H2         -7.4416    1.5058   -0.8104 H         1 <0>         0.0997
     18 C12        -7.5657    1.4072    1.3529 C.3       1 <0>        -0.1497
     19 C13        -8.7458    2.1848    1.9848 C.3       1 <0>        -0.1545
     20 C14        -9.3390    2.9265    0.7599 C.3       1 <0>         0.0436
     21 O2         -8.1739    3.2826   -0.0149 O.3       1 <0>        -0.3450
     22 H3         -1.1228    6.5940    0.0487 H         1 <0>         0.1245
     23 H4          1.3361    6.5212    0.0248 H         1 <0>         0.1262
     24 H5          2.5187    4.3725    0.0019 H         1 <0>         0.1205
     25 H6         -2.4243    4.5098    0.0498 H         1 <0>         0.1364
     26 H7          0.0021   -0.0041    0.0020 H         1 <0>         0.1804
     27 H8         -2.7354    0.3070    0.0149 H         1 <0>         0.1196
     28 H9         -5.0186    0.8144    0.0264 H         1 <0>         0.3830
     29 H10        -7.8560    0.3779    1.1428 H         1 <0>         0.0903
     30 H11        -6.6964    1.4329    2.0101 H         1 <0>         0.0823
     31 H12        -9.4761    1.5003    2.4162 H         1 <0>         0.0878
     32 H13        -8.3890    2.8928    2.7329 H         1 <0>         0.0817
     33 H14        -9.9915    2.2652    0.1898 H         1 <0>         0.0673
     34 H15        -9.8799    3.8183    1.0761 H         1 <0>         0.1011
@<TRIPOS>BOND
     1    1    6 ar
     2    1    2 ar
     3    1   22 1
     4    2    3 ar
     5    2   23 1
     6    3    4 ar
     7    3   24 1
     8    4    9 1
     9    4    5 ar
    10    5    6 ar
    11    5    7 1
    12    6   25 1
    13    7    8 2
    14    7   11 1
    15    8    9 1
    16    8   26 1
    17    9   10 1
    18   11   12 2
    19   11   27 1
    20   12   13 1
    21   13   14 am
    22   13   28 1
    23   14   15 2
    24   14   16 1
    25   16   17 1
    26   16   21 1
    27   16   18 1
    28   18   19 1
    29   18   29 1
    30   18   30 1
    31   19   20 1
    32   19   31 1
    33   19   32 1
    34   20   21 1
    35   20   33 1
    36   20   34 1
@<TRIPOS>MOLECULE
ZINC36863264
   42    43     0     0     0
SMALL
USER_CHARGES

@<TRIPOS>ATOM
      1 C1         -1.9844   -7.0406   -2.2089 C.3       1 <0>        -0.1469
      2 C2         -1.0063   -5.8816   -2.4106 C.3       1 <0>        -0.1351
      3 C3         -0.9535   -5.0317   -1.1395 C.3       1 <0>         0.1089
      4 N1         -0.1099   -3.8568   -1.3723 N.pl3     1 <0>        -0.3981
      5 C4          1.2167   -3.7643   -1.0877 C.2       1 <0>        -0.0622
      6 C5          1.6543   -2.5275   -1.4411 C.2       1 <0>         0.1234
      7 C6          0.5628   -1.8212   -1.9653 C.2       1 <0>        -0.2082
      8 C7         -0.5270   -2.6658   -1.9206 C.2       1 <0>        -0.0191
      9 C8         -1.8857   -2.3502   -2.3732 C.2       1 <0>         0.5908
     10 O1         -2.6339   -3.2443   -2.7222 O.2       1 <0>        -0.5395
     11 N2         -2.3058   -1.0699   -2.4026 N.am      1 <0>        -0.5982
     12 C9         -1.4156    0.0290   -1.9959 C.3       1 <0>         0.0440
     13 C10        -2.1607    0.9047   -0.9820 C.3       1 <0>         0.0737
     14 H1         -2.3137    0.3441   -0.0598 H         1 <0>         0.0624
     15 O2         -3.4272    1.2822   -1.5271 O.3       1 <0>        -0.3737
     16 C11        -4.3034    0.1830   -1.7877 C.3       1 <0>         0.0552
     17 C12        -3.6662   -0.7292   -2.8482 C.3       1 <0>         0.1051
     18 H2         -4.2567   -1.6393   -2.9539 H         1 <0>         0.1088
     19 C13        -3.6007    0.0022   -4.1905 C.3       1 <0>        -0.1563
     20 C14        -1.3358    2.1590   -0.6866 C.3       1 <0>        -0.1449
     21 N3          2.9683   -2.0422   -1.3047 N.pl3     1 <0>        -0.8784
     22 H3         -1.6051   -7.7053   -1.4327 H         1 <0>         0.0542
     23 H4         -2.9558   -6.6482   -1.9083 H         1 <0>         0.0590
     24 H5         -2.0891   -7.5943   -3.1420 H         1 <0>         0.0607
     25 H6         -0.0134   -6.2771   -2.6247 H         1 <0>         0.0638
     26 H7         -1.3399   -5.2658   -3.2458 H         1 <0>         0.0794
     27 H8         -1.9608   -4.7092   -0.8759 H         1 <0>         0.0928
     28 H9         -0.5362   -5.6228   -0.3243 H         1 <0>         0.0890
     29 H10         1.8224   -4.5452   -0.6521 H         1 <0>         0.1639
     30 H11         0.5740   -0.8076   -2.3379 H         1 <0>         0.1548
     31 H12        -0.5150   -0.3789   -1.5369 H         1 <0>         0.1303
     32 H13        -1.1462    0.6250   -2.8678 H         1 <0>         0.0789
     33 H14        -4.4642   -0.3802   -0.8685 H         1 <0>         0.0557
     34 H15        -5.2577    0.5579   -2.1576 H         1 <0>         0.1083
     35 H16        -3.1280   -0.6415   -4.9323 H         1 <0>         0.0590
     36 H17        -4.6099    0.2529   -4.5173 H         1 <0>         0.0705
     37 H18        -3.0176    0.9162   -4.0782 H         1 <0>         0.0649
     38 H19        -1.2594    2.7646   -1.5897 H         1 <0>         0.0675
     39 H20        -1.8226    2.7374    0.0986 H         1 <0>         0.0678
     40 H21        -0.3378    1.8686   -0.3584 H         1 <0>         0.0753
     41 H22         3.6584   -2.6101   -0.9279 H         1 <0>         0.3954
     42 H23         3.1837   -1.1397   -1.5876 H         1 <0>         0.3971
@<TRIPOS>BOND
     1    1    2 1
     2    1   22 1
     3    1   23 1
     4    1   24 1
     5    2    3 1
     6    2   25 1
     7    2   26 1
     8    3    4 1
     9    3   27 1
    10    3   28 1
    11    4    8 1
    12    4    5 1
    13    5    6 2
    14    5   29 1
    15    6    7 1
    16    6   21 1
    17    7    8 2
    18    7   30 1
    19    8    9 1
    20    9   10 2
    21    9   11 am
    22   11   17 1
    23   11   12 1
    24   12   13 1
    25   12   31 1
    26   12   32 1
    27   13   14 1
    28   13   15 1
    29   13   20 1
    30   15   16 1
    31   16   17 1
    32   16   33 1
    33   16   34 1
    34   17   18 1
    35   17   19 1
    36   19   35 1
    37   19   36 1
    38   19   37 1
    39   20   38 1
    40   20   39 1
    41   20   40 1
    42   21   41 1
    43   21   42 1
@<TRIPOS>MOLECULE
ZINC44750347
   36    38     0     0     0
SMALL
USER_CHARGES

@<TRIPOS>ATOM
      1 C1         -1.9745    0.6391    0.5305 C.3       1 <0>        -0.1250
      2 C2         -0.9383   -0.4190    0.2519 C.ar      1 <0>         0.0143
      3 C3         -1.0049   -1.1611   -0.9061 C.ar      1 <0>        -0.2058
      4 C4         -0.0489   -2.1385   -1.1638 C.ar      1 <0>         0.2529
      5 C5          0.9774   -2.3695   -0.2527 C.ar      1 <0>        -0.2095
      6 C6          1.0496   -1.6310    0.9069 C.ar      1 <0>        -0.0021
      7 C7          0.0944   -0.6442    1.1657 C.ar      1 <0>        -0.1160
      8 C8          0.1725    0.1539    2.4049 C.2       1 <0>         0.3517
      9 N1          0.3760   -0.3166    3.6161 N.2       1 <0>        -0.5251
     10 C9          0.3875    0.6849    4.4982 C.2       1 <0>         0.2614
     11 N2          0.1925    1.8096    3.8698 N.2       1 <0>        -0.3513
     12 O1          0.0540    1.4905    2.4933 O.3       1 <0>        -0.1021
     13 C10         0.5929    0.5384    5.9839 C.3       1 <0>        -0.0372
     14 C11         2.0860    0.6331    6.3042 C.3       1 <0>         0.0858
     15 H1          2.5025    1.5533    5.8945 H         1 <0>         0.0749
     16 C12         2.3122    0.5756    7.8360 C.3       1 <0>        -0.1495
     17 C13         3.7693    0.0420    7.8990 C.3       1 <0>        -0.1561
     18 C14         3.8259   -0.9011    6.6780 C.3       1 <0>         0.0486
     19 O2          2.7823   -0.5074    5.7771 O.3       1 <0>        -0.3686
     20 N3         -0.1193   -2.8875   -2.3356 N.pl3     1 <0>        -0.8663
     21 H2         -1.6024    1.6084    0.1986 H         1 <0>         0.0845
     22 H3         -2.8923    0.3991   -0.0063 H         1 <0>         0.0762
     23 H4         -2.1783    0.6753    1.6006 H         1 <0>         0.0650
     24 H5         -1.8003   -0.9844   -1.6150 H         1 <0>         0.1316
     25 H6          1.7178   -3.1292   -0.4553 H         1 <0>         0.1320
     26 H7          1.8460   -1.8110    1.6138 H         1 <0>         0.1354
     27 H8          0.0585    1.3329    6.5047 H         1 <0>         0.1092
     28 H9          0.2121   -0.4297    6.3096 H         1 <0>         0.1095
     29 H10         2.2375    1.5676    8.2816 H         1 <0>         0.0880
     30 H11         1.6185   -0.1190    8.3097 H         1 <0>         0.0851
     31 H12         4.4857    0.8567    7.7935 H         1 <0>         0.0777
     32 H13         3.9407   -0.5096    8.8234 H         1 <0>         0.0853
     33 H14         4.7932   -0.8088    6.1840 H         1 <0>         0.0681
     34 H15         3.6700   -1.9311    6.9987 H         1 <0>         0.0719
     35 H16        -0.8344   -2.7275   -2.9712 H         1 <0>         0.4024
     36 H17         0.5467   -3.5692   -2.5162 H         1 <0>         0.4029
@<TRIPOS>BOND
     1    1    2 1
     2    1   21 1
     3    1   22 1
     4    1   23 1
     5    2    7 ar
     6    2    3 ar
     7    3    4 ar
     8    3   24 1
     9    4    5 ar
    10    4   20 1
    11    5    6 ar
    12    5   25 1
    13    6    7 ar
    14    6   26 1
    15    7    8 1
    16    8   12 1
    17    8    9 2
    18    9   10 1
    19   10   11 2
    20   10   13 1
    21   11   12 1
    22   13   14 1
    23   13   27 1
    24   13   28 1
    25   14   15 1
    26   14   19 1
    27   14   16 1
    28   16   17 1
    29   16   29 1
    30   16   30 1
    31   17   18 1
    32   17   31 1
    33   17   32 1
    34   18   19 1
    35   18   33 1
    36   18   34 1
    37   20   35 1
    38   20   36 1
@<TRIPOS>MOLECULE
ZINC51072262
   38    40     0     0     0
SMALL
USER_CHARGES

@<TRIPOS>ATOM
      1 C1          2.5769    5.6339    0.1889 C.ar      1 <0>        -0.0354
      2 C2          2.5449    4.2466    0.2318 C.ar      1 <0>        -0.1656
      3 C3          3.7000    3.5310   -0.0657 C.ar      1 <0>         0.1262
      4 N1          4.8238    4.1626   -0.3877 N.ar      1 <0>        -0.5153
      5 C4          4.8854    5.4808   -0.4369 C.ar      1 <0>         0.4005
      6 C5          3.7631    6.2579   -0.1499 C.ar      1 <0>        -0.2111
      7 N2          6.0817    6.1006   -0.7779 N.pl3     1 <0>        -0.8489
      8 C6          3.6772    2.0503   -0.0225 C.2       1 <0>         0.5735
      9 O1          2.6228    1.4627    0.1178 O.2       1 <0>        -0.5297
     10 N3          4.8258    1.3550   -0.1390 N.am      1 <0>        -0.5949
     11 C7          4.8197   -0.1113   -0.2646 C.3       1 <0>         0.0725
     12 C8          5.7877   -0.6955    0.7698 C.3       1 <0>         0.0506
     13 O2          7.0580   -0.0485    0.6507 O.3       1 <0>        -0.3718
     14 C9          7.0188    1.3556    0.9033 C.3       1 <0>         0.0797
     15 H1          6.5932    1.5267    1.8921 H         1 <0>         0.0542
     16 C10         6.1338    2.0371   -0.1512 C.3       1 <0>         0.0804
     17 H2          6.0091    3.0935    0.0868 H         1 <0>         0.1670
     18 C11         6.7546    1.8609   -1.5394 C.3       1 <0>        -0.1140
     19 C12         8.1551    2.4741   -1.5616 C.3       1 <0>        -0.1114
     20 C13         9.0349    1.7625   -0.5309 C.3       1 <0>        -0.1186
     21 C14         8.4249    1.9450    0.8590 C.3       1 <0>        -0.1072
     22 H3          1.6929    6.2131    0.4112 H         1 <0>         0.1439
     23 H4          1.6338    3.7290    0.4933 H         1 <0>         0.1464
     24 H5          3.8202    7.3356   -0.1924 H         1 <0>         0.1378
     25 H6          6.8654    5.5653   -0.9782 H         1 <0>         0.4046
     26 H7          6.1329    7.0685   -0.8157 H         1 <0>         0.4113
     27 H8          3.8144   -0.4901   -0.0798 H         1 <0>         0.1016
     28 H9          5.1412   -0.3940   -1.2670 H         1 <0>         0.0782
     29 H10         5.3900   -0.5339    1.7718 H         1 <0>         0.0547
     30 H11         5.9063   -1.7646    0.5937 H         1 <0>         0.1073
     31 H12         6.8202    0.7987   -1.7749 H         1 <0>         0.0638
     32 H13         6.1297    2.3578   -2.2815 H         1 <0>         0.0623
     33 H14         8.5889    2.3549   -2.5545 H         1 <0>         0.0641
     34 H15         8.0921    3.5343   -1.3163 H         1 <0>         0.0597
     35 H16         9.0857    0.6996   -0.7672 H         1 <0>         0.0708
     36 H17        10.0377    2.1893   -0.5513 H         1 <0>         0.0641
     37 H18         8.3799    3.0071    1.0996 H         1 <0>         0.0769
     38 H19         9.0539    1.4360    1.5893 H         1 <0>         0.0718
@<TRIPOS>BOND
     1    1    6 ar
     2    1    2 ar
     3    1   22 1
     4    2    3 ar
     5    2   23 1
     6    3    4 ar
     7    3    8 1
     8    4    5 ar
     9    5    6 ar
    10    5    7 1
    11    6   24 1
    12    7   25 1
    13    7   26 1
    14    8    9 2
    15    8   10 am
    16   10   16 1
    17   10   11 1
    18   11   12 1
    19   11   27 1
    20   11   28 1
    21   12   13 1
    22   12   29 1
    23   12   30 1
    24   13   14 1
    25   14   15 1
    26   14   21 1
    27   14   16 1
    28   16   17 1
    29   16   18 1
    30   18   19 1
    31   18   31 1
    32   18   32 1
    33   19   20 1
    34   19   33 1
    35   19   34 1
    36   20   21 1
    37   20   35 1
    38   20   36 1
    39   21   37 1
    40   21   38 1
@<TRIPOS>MOLECULE
ZINC61322715
   37    39     0     0     0
SMALL
USER_CHARGES

@<TRIPOS>ATOM
      1 C1         -0.0187    1.5258    0.0104 C.3       1 <0>        -0.1476
      2 C2          0.0021   -0.0041    0.0020 C.3       1 <0>        -0.0500
      3 C3          0.7074   -0.4901   -1.2379 C.2       1 <0>         0.3141
      4 N1          0.1285   -0.7348   -2.3772 N.2       1 <0>        -0.5050
      5 C4          1.0528   -1.1553   -3.2787 C.ar      1 <0>         0.1014
      6 C5          0.9818   -1.5434   -4.6194 C.ar      1 <0>        -0.1617
      7 C6          2.1312   -1.9298   -5.2823 C.ar      1 <0>         0.2091
      8 C7          3.3582   -1.9345   -4.6212 C.ar      1 <0>        -0.1668
      9 C8          3.4392   -1.5538   -3.2998 C.ar      1 <0>        -0.0649
     10 C9          2.2936   -1.1626   -2.6202 C.ar      1 <0>        -0.0033
     11 N2          2.0426   -0.7311   -1.3305 N.pl3     1 <0>        -0.4828
     12 C10         3.0310   -0.5674   -0.2616 C.3       1 <0>         0.1713
     13 C11         3.1556   -1.8565    0.5090 C.ar      1 <0>         0.0400
     14 C12         4.3948   -2.4524    0.6649 C.ar      1 <0>         0.0744
     15 N3          4.5040   -3.5823    1.3410 N.ar      1 <0>        -0.4359
     16 C13         3.4299   -4.1433    1.8683 C.ar      1 <0>         0.0872
     17 C14         2.1911   -3.5476    1.7125 C.ar      1 <0>         0.0567
     18 N4          2.0825   -2.4148    1.0405 N.ar      1 <0>        -0.4168
     19 C15         3.5545   -5.4324    2.6390 C.3       1 <0>        -0.1049
     20 N5          2.0627   -2.3188   -6.6247 N.pl3     1 <0>        -0.8798
     21 H1          1.0039    1.9031    0.0027 H         1 <0>         0.0523
     22 H2         -0.5459    1.8868   -0.8726 H         1 <0>         0.0644
     23 H3         -0.5289    1.8773    0.9072 H         1 <0>         0.0693
     24 H4          0.5293   -0.3651    0.8851 H         1 <0>         0.0918
     25 H5         -1.0205   -0.3814    0.0098 H         1 <0>         0.0986
     26 H6          0.0328   -1.5418   -5.1349 H         1 <0>         0.1254
     27 H7          4.2506   -2.2388   -5.1479 H         1 <0>         0.1278
     28 H8          4.3929   -1.5599   -2.7929 H         1 <0>         0.1195
     29 H9          3.9967   -0.3091   -0.6962 H         1 <0>         0.1107
     30 H10         2.7105    0.2284    0.4108 H         1 <0>         0.1133
     31 H11         5.2725   -1.9941    0.2337 H         1 <0>         0.1709
     32 H12         1.3134   -4.0061    2.1434 H         1 <0>         0.1729
     33 H13         3.7319   -5.2108    3.6914 H         1 <0>         0.0863
     34 H14         2.6331   -6.0061    2.5388 H         1 <0>         0.0826
     35 H15         4.3885   -6.0126    2.2443 H         1 <0>         0.0827
     36 H16         1.2101   -2.3168   -7.0873 H         1 <0>         0.3986
     37 H17         2.8677   -2.5905   -7.0926 H         1 <0>         0.3980
@<TRIPOS>BOND
     1    1    2 1
     2    1   21 1
     3    1   22 1
     4    1   23 1
     5    2    3 1
     6    2   24 1
     7    2   25 1
     8    3   11 1
     9    3    4 2
    10    4    5 1
    11    5   10 ar
    12    5    6 ar
    13    6    7 ar
    14    6   26 1
    15    7    8 ar
    16    7   20 1
    17    8    9 ar
    18    8   27 1
    19    9   10 ar
    20    9   28 1
    21   10   11 1
    22   11   12 1
    23   12   13 1
    24   12   29 1
    25   12   30 1
    26   13   18 ar
    27   13   14 ar
    28   14   15 ar
    29   14   31 1
    30   15   16 ar
    31   16   17 ar
    32   16   19 1
    33   17   18 ar
    34   17   32 1
    35   19   33 1
    36   19   34 1
    37   19   35 1
    38   20   36 1
    39   20   37 1
@<TRIPOS>MOLECULE
ZINC09937097
   36    39     0     0     0
SMALL
USER_CHARGES
phenylBLAHone
@<TRIPOS>ATOM
      1 C1          2.5284    1.1683    4.8415 C.ar      1 <0>        -0.1116
      2 C2          3.5764    1.5037    4.0048 C.ar      1 <0>        -0.1189
      3 C3          3.4493    1.3398    2.6381 C.ar      1 <0>        -0.0944
      4 C4          2.2741    0.8409    2.1081 C.ar      1 <0>        -0.1114
      5 C5          1.2240    0.5109    2.9444 C.ar      1 <0>        -0.0993
      6 C6          1.3530    0.6698    4.3115 C.ar      1 <0>        -0.1175
      7 C7          2.1353    0.6626    0.6181 C.3       1 <0>         0.4411
      8 C8          1.4760    1.9089   -0.0018 C.3       1 <0>        -0.1304
      9 C9         -0.0184    1.5086    0.0103 C.3       1 <0>        -0.1520
     10 C10         0.0021   -0.0041    0.0020 C.2       1 <0>         0.5230
     11 O1         -0.9490   -0.7091   -0.2613 O.2       1 <0>        -0.5183
     12 N1          1.2274   -0.4550    0.3289 N.am      1 <0>        -0.6137
     13 C11         1.6360   -1.8651    0.3592 C.3       1 <0>         0.1776
     14 C12         3.0375   -1.9933   -0.1557 C.ar      1 <0>        -0.1724
     15 C13         3.5056   -3.2508   -0.4979 C.ar      1 <0>        -0.0679
     16 C14         4.7763   -3.4061   -1.0163 C.ar      1 <0>        -0.1674
     17 C15         5.5883   -2.3010   -1.1965 C.ar      1 <0>        -0.0725
     18 C16         5.1314   -1.0467   -0.8520 C.ar      1 <0>        -0.1884
     19 C17         3.8521   -0.8848   -0.3212 C.ar      1 <0>         0.2263
     20 N2          3.4391    0.4009    0.0254 N.pl3     1 <0>        -0.7403
     21 H1          2.6278    1.2960    5.9093 H         1 <0>         0.1243
     22 H2          4.4945    1.8935    4.4188 H         1 <0>         0.1249
     23 H3          4.2680    1.6018    1.9843 H         1 <0>         0.1213
     24 H4          0.3043    0.1252    2.5300 H         1 <0>         0.1180
     25 H5          0.5341    0.4082    4.9652 H         1 <0>         0.1249
     26 H6          1.8286    2.0716   -1.0203 H         1 <0>         0.0957
     27 H7          1.6493    2.7904    0.6155 H         1 <0>         0.1014
     28 H8         -0.5222    1.8881   -0.8787 H         1 <0>         0.1115
     29 H9         -0.5051    1.8785    0.9128 H         1 <0>         0.1114
     30 H10         1.6130   -2.2293    1.3863 H         1 <0>         0.0748
     31 H11         0.9544   -2.4554   -0.2533 H         1 <0>         0.1000
     32 H12         2.8736   -4.1153   -0.3581 H         1 <0>         0.1244
     33 H13         5.1355   -4.3896   -1.2810 H         1 <0>         0.1227
     34 H14         6.5799   -2.4206   -1.6073 H         1 <0>         0.1236
     35 H15         5.7671   -0.1853   -0.9943 H         1 <0>         0.1219
     36 H16         4.0403    1.1454   -0.1333 H         1 <0>         0.4076
@<TRIPOS>BOND
     1    1    6 ar
     2    1    2 ar
     3    1   21 1
     4    2    3 ar
     5    2   22 1
     6    3    4 ar
     7    3   23 1
     8    4    5 ar
     9    4    7 1
    10    5    6 ar
    11    5   24 1
    12    6   25 1
    13    7   12 1
    14    7   20 1
    15    7    8 1
    16    8    9 1
    17    8   26 1
    18    8   27 1
    19    9   10 1
    20    9   28 1
    21    9   29 1
    22   10   11 2
    23   10   12 am
    24   12   13 1
    25   13   14 1
    26   13   30 1
    27   13   31 1
    28   14   19 ar
    29   14   15 ar
    30   15   16 ar
    31   15   32 1
    32   16   17 ar
    33   16   33 1
    34   17   18 ar
    35   17   34 1
    36   18   19 ar
    37   18   35 1
    38   19   20 1
    39   20   36 1
@<TRIPOS>MOLECULE
ZINC02569158
   25    27     0     0     0
SMALL
USER_CHARGES

@<TRIPOS>ATOM
      1 C1         -0.0178    1.4608    0.0101 C.3       1 <0>         0.0626
      2 N1          0.0021   -0.0041    0.0020 N.pl3     1 <0>        -0.4909
      3 C2         -1.1061   -0.8281    0.0026 C.2       1 <0>         0.3387
      4 N2         -0.7000   -2.0684   -0.0068 N.2       1 <0>        -0.2680
      5 N3          0.7015   -2.0657   -0.0137 N.pl3     1 <0>        -0.4685
      6 H1          1.2764   -2.8469   -0.0215 H         1 <0>         0.4711
      7 C3          1.1050   -0.7786   -0.0131 C.2       1 <0>         0.4731
      8 S1          2.7260   -0.2281   -0.0255 S.2       1 <0>        -0.5657
      9 C4         -2.5135   -0.3811    0.0127 C.2       1 <0>        -0.0571
     10 C5         -2.8185    0.9400    0.0169 C.2       1 <0>        -0.1307
     11 S2         -4.6005    0.9557    0.0288 S.3       1 <0>         0.0981
     12 C6         -4.8973   -0.7935    0.0279 C.ar      1 <0>        -0.1157
     13 C7         -3.6051   -1.3558    0.0123 C.ar      1 <0>        -0.0752
     14 C8         -3.5264   -2.7663    0.0035 C.ar      1 <0>        -0.0684
     15 C9         -4.6645   -3.5299    0.0050 C.ar      1 <0>        -0.1166
     16 C10        -5.9240   -2.9472    0.0148 C.ar      1 <0>        -0.0855
     17 C11        -6.0359   -1.5711    0.0347 C.ar      1 <0>        -0.0767
     18 H2          1.0048    1.8381    0.0023 H         1 <0>         0.1269
     19 H3         -0.5450    1.8219   -0.8730 H         1 <0>         0.0959
     20 H4         -0.5280    1.8123    0.9069 H         1 <0>         0.0961
     21 H5         -2.1425    1.7822    0.0141 H         1 <0>         0.2042
     22 H6         -2.5597   -3.2477   -0.0049 H         1 <0>         0.1419
     23 H7         -4.5794   -4.6065   -0.0018 H         1 <0>         0.1333
     24 H8         -6.8096   -3.5653    0.0152 H         1 <0>         0.1397
     25 H9         -7.0106   -1.1059    0.0419 H         1 <0>         0.1373
@<TRIPOS>BOND
     1    1    2 1
     2    1   18 1
     3    1   19 1
     4    1   20 1
     5    2    7 1
     6    2    3 1
     7    3    4 2
     8    3    9 1
     9    4    5 1
    10    5    6 1
    11    5    7 1
    12    7    8 2
    13    9   13 1
    14    9   10 2
    15   10   11 1
    16   10   21 1
    17   11   12 1
    18   12   17 ar
    19   12   13 ar
    20   13   14 ar
    21   14   15 ar
    22   14   22 1
    23   15   16 ar
    24   15   23 1
    25   16   17 ar
    26   16   24 1
    27   17   25 1
@<TRIPOS>MOLECULE
ZINC43510764
   40    42     0     0     0
SMALL
USER_CHARGES

@<TRIPOS>ATOM
      1 C1         -0.0187    1.5258    0.0104 C.3       1 <0>        -0.1599
      2 C2          0.0021   -0.0041    0.0020 C.3       1 <0>        -0.0781
      3 H1         -1.0209   -0.3802    0.0098 H         1 <0>         0.0761
      4 C3          0.7146   -0.4956   -1.2582 C.3       1 <0>        -0.1186
      5 C4          2.1474    0.0431   -1.2671 C.3       1 <0>        -0.1233
      6 C5          2.8877   -0.4801   -0.0362 C.3       1 <0>        -0.1094
      7 C6          2.1800   -0.0063    1.2367 C.3       1 <0>        -0.0677
      8 H2          2.1724    1.0834    1.2604 H         1 <0>         0.0857
      9 C7          0.7397   -0.5099    1.2451 C.3       1 <0>        -0.0435
     10 C8          0.0021    0.0208    2.4882 C.3       1 <0>        -0.0665
     11 C9          0.8689   -0.2814    3.6832 C.2       1 <0>        -0.0867
     12 C10         0.5682   -0.8479    4.8350 C.2       1 <0>        -0.1988
     13 C11         1.7979   -0.9827    5.6292 C.2       1 <0>         0.5011
     14 O1          1.8530   -1.3937    6.7716 O.2       1 <0>        -0.4458
     15 O2          2.8567   -0.5798    4.8949 O.3       1 <0>        -0.3180
     16 C12         2.3516    0.0484    3.7199 C.3       1 <0>         0.0543
     17 H3          2.5018    1.1268    3.7700 H         1 <0>         0.1296
     18 C13         2.9590   -0.5346    2.4480 C.3       1 <0>         0.1160
     19 H4          2.8954   -1.6224    2.4768 H         1 <0>         0.0727
     20 O3          4.3274   -0.1353    2.3483 O.3       1 <0>        -0.5541
     21 C14        -0.8081   -1.2854    5.2658 C.3       1 <0>        -0.0906
     22 C15         0.7327   -2.0398    1.2565 C.3       1 <0>        -0.1526
     23 H5          1.0039    1.9031    0.0027 H         1 <0>         0.0631
     24 H6         -0.5459    1.8868   -0.8726 H         1 <0>         0.0583
     25 H7         -0.5289    1.8773    0.9072 H         1 <0>         0.0577
     26 H8          0.7351   -1.5854   -1.2635 H         1 <0>         0.0666
     27 H9          0.1846   -0.1359   -2.1401 H         1 <0>         0.0648
     28 H10         2.6576   -0.2937   -2.1695 H         1 <0>         0.0641
     29 H11         2.1271    1.1327   -1.2441 H         1 <0>         0.0669
     30 H12         2.9023   -1.5698   -0.0583 H         1 <0>         0.0641
     31 H13         3.9112   -0.1052   -0.0425 H         1 <0>         0.0756
     32 H14        -0.1467    1.0970    2.4003 H         1 <0>         0.1007
     33 H15        -0.9601   -0.4808    2.5912 H         1 <0>         0.0926
     34 H16         4.8795   -0.4360    3.0831 H         1 <0>         0.3869
     35 H17        -0.9745   -2.3174    4.9571 H         1 <0>         0.0779
     36 H18        -0.8894   -1.2129    6.3504 H         1 <0>         0.0777
     37 H19        -1.5557   -0.6422    4.8016 H         1 <0>         0.0758
     38 H20         1.2317   -2.4121    0.3618 H         1 <0>         0.0691
     39 H21         1.2579   -2.3990    2.1415 H         1 <0>         0.0545
     40 H22        -0.2965   -2.3983    1.2742 H         1 <0>         0.0614
@<TRIPOS>BOND
     1    1    2 1
     2    1   23 1
     3    1   24 1
     4    1   25 1
     5    2    3 1
     6    2    9 1
     7    2    4 1
     8    4    5 1
     9    4   26 1
    10    4   27 1
    11    5    6 1
    12    5   28 1
    13    5   29 1
    14    6    7 1
    15    6   30 1
    16    6   31 1
    17    7    8 1
    18    7   18 1
    19    7    9 1
    20    9   10 1
    21    9   22 1
    22   10   11 1
    23   10   32 1
    24   10   33 1
    25   11   16 1
    26   11   12 2
    27   12   13 1
    28   12   21 1
    29   13   14 2
    30   13   15 1
    31   15   16 1
    32   16   17 1
    33   16   18 1
    34   18   19 1
    35   18   20 1
    36   20   34 1
    37   21   35 1
    38   21   36 1
    39   21   37 1
    40   22   38 1
    41   22   39 1
    42   22   40 1
@<TRIPOS>MOLECULE
ZINC53042103
   40    42     0     0     0
SMALL
USER_CHARGES

@<TRIPOS>ATOM
      1 C1         -0.0184    1.5028    0.0103 C.3       1 <0>        -0.0777
      2 C2          0.0021   -0.0041    0.0020 C.2       1 <0>         0.0027
      3 C3         -1.0783   -0.8055    0.0027 C.2       1 <0>        -0.2170
      4 C4         -0.6011   -2.1363   -0.0068 C.2       1 <0>        -0.1742
      5 C5          0.7423   -2.0686   -0.0126 C.2       1 <0>        -0.0509
      6 O1          1.1020   -0.7746   -0.0131 O.3       1 <0>        -0.1684
      7 C6          1.6840   -3.2450   -0.0226 C.3       1 <0>         0.1898
      8 N1          1.9828   -3.6196   -1.4070 N.pl3     1 <0>        -0.4382
      9 C7          1.3358   -4.5810   -2.1293 C.2       1 <0>        -0.0158
     10 C8          1.8922   -4.6335   -3.3590 C.2       1 <0>        -0.1818
     11 C9          2.9141   -3.6736   -3.3948 C.2       1 <0>        -0.2012
     12 C10         2.9458   -3.0643   -2.1876 C.2       1 <0>         0.0389
     13 C11         3.9117   -1.9638   -1.8229 C.3       1 <0>        -0.0396
     14 C12         5.0537   -1.9629   -2.8462 C.3       1 <0>        -0.0525
     15 C13         4.4717   -1.9686   -4.2624 C.3       1 <0>        -0.1011
     16 C14         3.8324   -3.3369   -4.5419 C.3       1 <0>         0.1791
     17 H1          4.6042   -4.1014   -4.6309 H         1 <0>         0.0626
     18 O2          3.0810   -3.2670   -5.7554 O.3       1 <0>        -0.5630
     19 C15         5.9109   -0.7105   -2.6524 C.3       1 <0>        -0.1419
     20 C16         5.9190   -3.2087   -2.6457 C.3       1 <0>        -0.1479
     21 H2          1.0042    1.8801    0.0026 H         1 <0>         0.0771
     22 H3         -0.5455    1.8639   -0.8728 H         1 <0>         0.0881
     23 H4         -0.5286    1.8543    0.9071 H         1 <0>         0.0884
     24 H5         -2.1119   -0.4924    0.0097 H         1 <0>         0.1508
     25 H6         -1.2002   -3.0349   -0.0086 H         1 <0>         0.1490
     26 H7          2.6082   -2.9750    0.4883 H         1 <0>         0.1036
     27 H8          1.2186   -4.0873    0.4893 H         1 <0>         0.1224
     28 H9          0.5196   -5.1945   -1.7774 H         1 <0>         0.1624
     29 H10         1.6040   -5.2924   -4.1647 H         1 <0>         0.1354
     30 H11         3.3982   -1.0026   -1.8450 H         1 <0>         0.0772
     31 H12         4.3128   -2.1433   -0.8254 H         1 <0>         0.0710
     32 H13         3.7182   -1.1856   -4.3488 H         1 <0>         0.0719
     33 H14         5.2686   -1.7872   -4.9836 H         1 <0>         0.0720
     34 H15         2.6293   -4.0903   -5.9863 H         1 <0>         0.3767
     35 H16         6.3260   -0.7068   -1.6445 H         1 <0>         0.0582
     36 H17         6.7227   -0.7097   -3.3797 H         1 <0>         0.0611
     37 H18         5.2946    0.1772   -2.7947 H         1 <0>         0.0571
     38 H19         5.3084   -4.1011   -2.7833 H         1 <0>         0.0635
     39 H20         6.7308   -3.2081   -3.3730 H         1 <0>         0.0581
     40 H21         6.3341   -3.2043   -1.6378 H         1 <0>         0.0543
@<TRIPOS>BOND
     1    1    2 1
     2    1   21 1
     3    1   22 1
     4    1   23 1
     5    2    6 1
     6    2    3 2
     7    3    4 1
     8    3   24 1
     9    4    5 2
    10    4   25 1
    11    5    6 1
    12    5    7 1
    13    7    8 1
    14    7   26 1
    15    7   27 1
    16    8   12 1
    17    8    9 1
    18    9   10 2
    19    9   28 1
    20   10   11 1
    21   10   29 1
    22   11   16 1
    23   11   12 2
    24   12   13 1
    25   13   14 1
    26   13   30 1
    27   13   31 1
    28   14   15 1
    29   14   19 1
    30   14   20 1
    31   15   16 1
    32   15   32 1
    33   15   33 1
    34   16   17 1
    35   16   18 1
    36   18   34 1
    37   19   35 1
    38   19   36 1
    39   19   37 1
    40   20   38 1
    41   20   39 1
    42   20   40 1
@<TRIPOS>MOLECULE
ZINC62614981
   33    34     0     0     0
SMALL
USER_CHARGES

@<TRIPOS>ATOM
      1 C1         -0.1426    1.4717    0.1098 C.3       1 <0>        -0.1187
      2 C2         -0.1133   -0.0324    0.0205 C.ar      1 <0>        -0.0531
      3 C3          0.1750   -0.6422   -1.1900 C.ar      1 <0>        -0.1314
      4 C4          0.2006   -2.0180   -1.2888 C.ar      1 <0>        -0.0416
      5 C5         -0.0649   -2.7915   -0.1581 C.ar      1 <0>        -0.1198
      6 C6         -0.3475   -2.1719    1.0676 C.ar      1 <0>         0.1280
      7 C7         -0.3687   -0.7900    1.1484 C.ar      1 <0>        -0.1384
      8 O1         -0.5840   -2.9341    2.1739 O.3       1 <0>        -0.3250
      9 C8         -1.7972   -3.6809    2.1812 C.3       1 <0>         0.0615
     10 C9         -1.6177   -5.0498    1.5421 C.3       1 <0>        -0.1370
     11 C10        -1.3651   -4.9798    0.0500 C.3       1 <0>        -0.1138
     12 C11        -0.0590   -4.2631   -0.2225 C.2       1 <0>         0.0605
     13 C12         1.0691   -4.9476   -0.5131 C.2       1 <0>        -0.2115
     14 C13         1.0942   -6.3593   -0.3859 C.2       1 <0>         0.5143
     15 O2          0.1428   -6.9434    0.0974 O.2       1 <0>        -0.5141
     16 O3          2.1734   -7.0550   -0.8007 O.3       1 <0>        -0.5070
     17 C14         0.5130   -2.6797   -2.6062 C.3       1 <0>        -0.1205
     18 H1          0.8517    1.8402    0.3620 H         1 <0>         0.0763
     19 H2         -0.4513    1.8867   -0.8497 H         1 <0>         0.0709
     20 H3         -0.8495    1.7762    0.8816 H         1 <0>         0.0702
     21 H4          0.3804   -0.0373   -2.0608 H         1 <0>         0.1305
     22 H5         -0.5884   -0.3055    2.0883 H         1 <0>         0.1351
     23 H6         -2.1292   -3.8100    3.2113 H         1 <0>         0.1021
     24 H7         -2.5583   -3.1282    1.6303 H         1 <0>         0.0583
     25 H8         -0.7744   -5.5508    2.0174 H         1 <0>         0.0776
     26 H9         -2.5173   -5.6396    1.7181 H         1 <0>         0.0850
     27 H10        -1.3146   -5.9901   -0.3560 H         1 <0>         0.1185
     28 H11        -2.1810   -4.4394   -0.4300 H         1 <0>         0.0721
     29 H12         1.9516   -4.4193   -0.8425 H         1 <0>         0.1409
     30 H13         2.0981   -8.0106   -0.6732 H         1 <0>         0.4096
     31 H14         1.5885   -2.8376   -2.6874 H         1 <0>         0.0783
     32 H15        -0.0003   -3.6396   -2.6614 H         1 <0>         0.0685
     33 H16         0.1770   -2.0405   -3.4226 H         1 <0>         0.0736
@<TRIPOS>BOND
     1    1    2 1
     2    1   18 1
     3    1   19 1
     4    1   20 1
     5    2    7 ar
     6    2    3 ar
     7    3    4 ar
     8    3   21 1
     9    4    5 ar
    10    4   17 1
    11    5   12 1
    12    5    6 ar
    13    6    7 ar
    14    6    8 1
    15    7   22 1
    16    8    9 1
    17    9   10 1
    18    9   23 1
    19    9   24 1
    20   10   11 1
    21   10   25 1
    22   10   26 1
    23   11   12 1
    24   11   27 1
    25   11   28 1
    26   12   13 2
    27   13   14 1
    28   13   29 1
    29   14   15 2
    30   14   16 1
    31   16   30 1
    32   17   31 1
    33   17   32 1
    34   17   33 1
@<TRIPOS>MOLECULE
ZINC37003127
   34    35     0     0     0
SMALL
USER_CHARGES

@<TRIPOS>ATOM
      1 C1         -0.0073    1.3943    0.0361 C.ar      1 <0>        -0.1084
      2 C2          1.1822    2.0998    0.0233 C.ar      1 <0>        -0.0985
      3 C3          2.3867    1.4249   -0.0011 C.ar      1 <0>        -0.1106
      4 C4          2.4028    0.0361   -0.0123 C.ar      1 <0>         0.1263
      5 C5          1.2068   -0.6693    0.0010 C.ar      1 <0>        -0.0769
      6 C6          0.0053    0.0118    0.0250 C.ar      1 <0>        -0.0873
      7 C7          1.2196   -2.1761   -0.0111 C.3       1 <0>        -0.1098
      8 C8          1.3701   -2.6886    1.3981 C.2       1 <0>         0.5072
      9 O1          1.4582   -1.9071    2.3214 O.2       1 <0>        -0.5268
     10 N1          1.4066   -4.0153    1.6324 N.am      1 <0>        -0.8542
     11 N2          3.6216   -0.6508   -0.0375 N.am      1 <0>        -0.6319
     12 C9          4.6689   -0.1404   -0.7151 C.2       1 <0>         0.5037
     13 O2          4.5807    0.9520   -1.2346 O.2       1 <0>        -0.4994
     14 C10         5.9494   -0.9270   -0.8271 C.3       1 <0>        -0.0051
     15 H1          5.7290   -1.8761   -1.3157 H         1 <0>         0.1853
     16 C11         6.4733   -1.2191    0.6003 C.3       1 <0>        -0.0905
     17 S1          8.2909   -1.0342    0.3201 S.3       1 <0>        -0.1528
     18 C12         8.1667    0.2041   -1.0449 C.3       1 <0>         0.0233
     19 N3          6.8792   -0.1804   -1.6648 N.4       1 <0>        -0.5043
     20 H2         -0.9480    1.9244    0.0593 H         1 <0>         0.1342
     21 H3          1.1691    3.1797    0.0321 H         1 <0>         0.1340
     22 H4          3.3152    1.9763   -0.0117 H         1 <0>         0.1380
     23 H5         -0.9253   -0.5362    0.0354 H         1 <0>         0.1338
     24 H6          0.2846   -2.5440   -0.4336 H         1 <0>         0.1172
     25 H7          2.0550   -2.5275   -0.6166 H         1 <0>         0.0978
     26 H8          1.3361   -4.6403    0.8940 H         1 <0>         0.4043
     27 H9          1.5035   -4.3451    2.5395 H         1 <0>         0.4077
     28 H10         3.7127   -1.4943    0.4328 H         1 <0>         0.4174
     29 H11         6.1060   -0.4828    1.3152 H         1 <0>         0.1332
     30 H12         6.2223   -2.2322    0.9146 H         1 <0>         0.1658
     31 H13         8.1225    1.2192   -0.6505 H         1 <0>         0.1636
     32 H14         8.9912    0.0947   -1.7495 H         1 <0>         0.1833
     33 H15         7.0822   -0.7379   -2.4809 H         1 <0>         0.4433
     34 H16         6.4166    0.6622   -1.9718 H         1 <0>         0.4370
@<TRIPOS>BOND
     1    1    6 ar
     2    1    2 ar
     3    1   20 1
     4    2    3 ar
     5    2   21 1
     6    3    4 ar
     7    3   22 1
     8    4    5 ar
     9    4   11 1
    10    5    6 ar
    11    5    7 1
    12    6   23 1
    13    7    8 1
    14    7   24 1
    15    7   25 1
    16    8    9 2
    17    8   10 am
    18   10   26 1
    19   10   27 1
    20   11   12 am
    21   11   28 1
    22   12   13 2
    23   12   14 1
    24   14   15 1
    25   14   19 1
    26   14   16 1
    27   16   17 1
    28   16   29 1
    29   16   30 1
    30   17   18 1
    31   18   19 1
    32   18   31 1
    33   18   32 1
    34   19   33 1
    35   19   34 1
@<TRIPOS>MOLECULE
ZINC43045238
   40    41     0     0     0
SMALL
USER_CHARGES

@<TRIPOS>ATOM
      1 C1          2.1138   -4.2042   -2.7743 C.ar      1 <0>        -0.1252
      2 C2          3.4586   -4.0592   -3.0611 C.ar      1 <0>        -0.0730
      3 C3          4.3063   -3.4887   -2.1310 C.ar      1 <0>        -0.1477
      4 C4          3.8085   -3.0621   -0.9112 C.ar      1 <0>         0.1062
      5 C5          2.4619   -3.2078   -0.6251 C.ar      1 <0>        -0.1237
      6 C6          1.6158   -3.7788   -1.5571 C.ar      1 <0>        -0.0677
      7 C7          1.9187   -2.7445    0.7020 C.3       1 <0>         0.1109
      8 H1          2.3460   -1.7729    0.9503 H         1 <0>         0.1194
      9 C8          2.2905   -3.7574    1.7869 C.3       1 <0>        -0.0491
     10 N1          1.7004   -3.3429    3.0667 N.4       1 <0>        -0.6444
     11 N2          0.4566   -2.6298    0.6196 N.3       1 <0>        -0.5078
     12 C9         -0.1856   -3.9360    0.8142 C.3       1 <0>         0.0386
     13 C10        -1.6920   -3.8055    0.5782 C.3       1 <0>        -0.1263
     14 C11        -2.2703   -2.7805    1.5578 C.3       1 <0>        -0.1247
     15 C12        -1.5511   -1.4422    1.3676 C.3       1 <0>        -0.1132
     16 C13        -0.0488   -1.6412    1.5807 C.3       1 <0>         0.0668
     17 H2          0.1301   -1.9968    2.5954 H         1 <0>         0.0315
     18 C14         0.6655   -0.3302    1.3750 C.2       1 <0>         0.5002
     19 O1          1.0789   -0.0310    0.2748 O.2       1 <0>        -0.4901
     20 N3          0.8449    0.5096    2.4137 N.am      1 <0>        -0.8559
     21 F1          4.6365   -2.5045   -0.0008 F         1 <0>        -0.1400
     22 H3          1.4511   -4.6462   -3.5037 H         1 <0>         0.1373
     23 H4          3.8466   -4.3923   -4.0123 H         1 <0>         0.1404
     24 H5          5.3568   -3.3759   -2.3551 H         1 <0>         0.1427
     25 H6          0.5651   -3.8922   -1.3343 H         1 <0>         0.1467
     26 H7          1.9085   -4.7406    1.5122 H         1 <0>         0.1479
     27 H8          3.3751   -3.8033    1.8848 H         1 <0>         0.1495
     28 H9          0.7002   -3.4716    3.0333 H         1 <0>         0.4279
     29 H10         2.0869   -3.9024    3.8121 H         1 <0>         0.4401
     30 H11         0.2316   -4.6545    0.1088 H         1 <0>         0.1106
     31 H12        -0.0060   -4.2808    1.8326 H         1 <0>         0.0206
     32 H13        -1.8728   -3.4740   -0.4442 H         1 <0>         0.0892
     33 H14        -2.1704   -4.7718    0.7381 H         1 <0>         0.0860
     34 H15        -3.3353   -2.6524    1.3644 H         1 <0>         0.0871
     35 H16        -2.1242   -3.1306    2.5797 H         1 <0>         0.0618
     36 H17        -1.7297   -1.0735    0.3575 H         1 <0>         0.0955
     37 H18        -1.9288   -0.7200    2.0913 H         1 <0>         0.0854
     38 H19         0.5143    0.2703    3.2936 H         1 <0>         0.4004
     39 H20         1.3047    1.3534    2.2813 H         1 <0>         0.4152
     40 H21         1.9089   -2.3698    3.2337 H         1 <0>         0.4310
@<TRIPOS>BOND
     1    1    6 ar
     2    1    2 ar
     3    1   22 1
     4    2    3 ar
     5    2   23 1
     6    3    4 ar
     7    3   24 1
     8    4    5 ar
     9    4   21 1
    10    5    6 ar
    11    5    7 1
    12    6   25 1
    13    7    8 1
    14    7    9 1
    15    7   11 1
    16    9   10 1
    17    9   26 1
    18    9   27 1
    19   10   28 1
    20   10   29 1
    21   10   40 1
    22   11   16 1
    23   11   12 1
    24   12   13 1
    25   12   30 1
    26   12   31 1
    27   13   14 1
    28   13   32 1
    29   13   33 1
    30   14   15 1
    31   14   34 1
    32   14   35 1
    33   15   16 1
    34   15   36 1
    35   15   37 1
    36   16   17 1
    37   16   18 1
    38   18   19 2
    39   18   20 am
    40   20   38 1
    41   20   39 1
@<TRIPOS>MOLECULE
ZINC45542751
   34    35     0     0     0
SMALL
USER_CHARGES

@<TRIPOS>ATOM
      1 C1         -0.0184    1.5028    0.0103 C.3       1 <0>        -0.1103
      2 C2          0.0021   -0.0041    0.0020 C.ar      1 <0>         0.1628
      3 C3          0.0054   -0.6757   -1.2188 C.ar      1 <0>        -0.1569
      4 C4          0.0238   -2.0411   -1.2451 C.ar      1 <0>        -0.0540
      5 C5          0.0391   -2.7289   -0.0169 C.ar      1 <0>        -0.0787
      6 C6          0.0590   -4.1323    0.0347 C.ar      1 <0>        -0.1070
      7 C7          0.0738   -4.7635    1.2413 C.ar      1 <0>        -0.0887
      8 C8          0.0695   -4.0371    2.4292 C.ar      1 <0>        -0.1881
      9 C9          0.0503   -2.6716    2.4188 C.ar      1 <0>         0.1363
     10 C10         0.0347   -1.9835    1.1873 C.ar      1 <0>         0.1221
     11 N1          0.0217   -0.6483    1.1434 N.ar      1 <0>        -0.4705
     12 O1          0.0460   -1.9798    3.5879 O.3       1 <0>        -0.3033
     13 C11         0.0621   -2.7450    4.7946 C.3       1 <0>         0.0312
     14 C12         0.0544   -1.7999    5.9979 C.3       1 <0>         0.0175
     15 H1         -0.7973   -1.1238    5.9233 H         1 <0>         0.1784
     16 C13        -0.0525   -2.6043    7.2677 C.2       1 <0>         0.5133
     17 O2          0.9397   -2.8306    7.9275 O.2       1 <0>        -0.5142
     18 N2         -1.2506   -3.0723    7.6702 N.am      1 <0>        -0.8193
     19 N3          1.2989   -1.0197    6.0157 N.4       1 <0>        -0.6190
     20 H2          1.0042    1.8801    0.0026 H         1 <0>         0.0846
     21 H3         -0.5455    1.8639   -0.8728 H         1 <0>         0.0829
     22 H4         -0.5286    1.8543    0.9071 H         1 <0>         0.0793
     23 H5         -0.0070   -0.1173   -2.1431 H         1 <0>         0.1460
     24 H6          0.0263   -2.5781   -2.1821 H         1 <0>         0.1495
     25 H7          0.0622   -4.7085   -0.8787 H         1 <0>         0.1396
     26 H8          0.0887   -5.8428    1.2773 H         1 <0>         0.1373
     27 H9          0.0811   -4.5616    3.3732 H         1 <0>         0.1335
     28 H10        -0.8188   -3.3858    4.8303 H         1 <0>         0.1151
     29 H11         0.9609   -3.3610    4.8222 H         1 <0>         0.0991
     30 H12        -2.0441   -2.8913    7.1425 H         1 <0>         0.4156
     31 H13        -1.3194   -3.5901    8.4875 H         1 <0>         0.4282
     32 H14         1.3704   -0.4811    5.1655 H         1 <0>         0.4518
     33 H15         1.2938   -0.3965    6.8092 H         1 <0>         0.4434
     34 H16         2.0873   -1.6456    6.0847 H         1 <0>         0.4422
@<TRIPOS>BOND
     1    1    2 1
     2    1   20 1
     3    1   21 1
     4    1   22 1
     5    2   11 ar
     6    2    3 ar
     7    3    4 ar
     8    3   23 1
     9    4    5 ar
    10    4   24 1
    11    5   10 ar
    12    5    6 ar
    13    6    7 ar
    14    6   25 1
    15    7    8 ar
    16    7   26 1
    17    8    9 ar
    18    8   27 1
    19    9   10 ar
    20    9   12 1
    21   10   11 ar
    22   12   13 1
    23   13   14 1
    24   13   28 1
    25   13   29 1
    26   14   15 1
    27   14   16 1
    28   14   19 1
    29   16   17 2
    30   16   18 am
    31   18   30 1
    32   18   31 1
    33   19   32 1
    34   19   33 1
    35   19   34 1
@<TRIPOS>MOLECULE
ZINC55088639
   45    46     0     0     0
SMALL
USER_CHARGES

@<TRIPOS>ATOM
      1 C1          1.0335    1.2933    0.2848 C.3       1 <0>        -0.1320
      2 C2          2.5306    1.3282    0.5982 C.3       1 <0>        -0.1142
      3 C3          2.7913    0.6086    1.9230 C.3       1 <0>        -0.1626
      4 C4          2.3269   -0.8452    1.8137 C.3       1 <0>         0.0509
      5 H1          2.8770   -1.3432    1.0153 H         1 <0>         0.1493
      6 C5          0.8298   -0.8801    1.5003 C.3       1 <0>        -0.1312
      7 H2          0.4989   -1.9158    1.4224 H         1 <0>         0.1188
      8 C6          0.5691   -0.1604    0.1755 C.3       1 <0>        -0.1111
      9 C7          0.0693   -0.1915    2.6041 C.2       1 <0>         0.5194
     10 O1          0.6663    0.4460    3.4456 O.2       1 <0>        -0.5474
     11 N1         -1.2743   -0.2841    2.6563 N.am      1 <0>        -0.5666
     12 C8         -2.0211    0.4615    3.6724 C.3       1 <0>         0.0850
     13 C9         -2.3876    1.8193    3.1309 C.2       1 <0>         0.5006
     14 O2         -2.0575    2.1332    2.0069 O.2       1 <0>        -0.5271
     15 N2         -3.0822    2.6848    3.8958 N.am      1 <0>        -0.8498
     16 C10        -1.9880   -1.1304    1.6968 C.3       1 <0>         0.1198
     17 C11        -3.1125   -0.3239    1.0149 C.3       1 <0>        -0.1336
     18 C12        -4.2684   -1.3427    0.8568 C.3       1 <0>        -0.1288
     19 C13        -4.1823   -2.1635    2.1675 C.3       1 <0>        -0.1268
     20 C14        -2.6682   -2.3001    2.4295 C.3       1 <0>        -0.1401
     21 N3          2.5772   -1.5361    3.0856 N.4       1 <0>        -0.6381
     22 H3          0.4834    1.7913    1.0833 H         1 <0>         0.0780
     23 H4          0.8478    1.8060   -0.6589 H         1 <0>         0.0815
     24 H5          3.0807    0.8302   -0.2002 H         1 <0>         0.0718
     25 H6          2.8614    2.3639    0.6761 H         1 <0>         0.0838
     26 H7          3.8579    0.6335    2.1463 H         1 <0>         0.0846
     27 H8          2.2412    1.1066    2.7214 H         1 <0>         0.1244
     28 H9         -0.4975   -0.1853   -0.0478 H         1 <0>         0.0926
     29 H10         1.1192   -0.6585   -0.6229 H         1 <0>         0.0899
     30 H11        -2.9289   -0.0842    3.9296 H         1 <0>         0.1171
     31 H12        -1.4038    0.5800    4.5629 H         1 <0>         0.1207
     32 H13        -3.3462    2.4337    4.7948 H         1 <0>         0.4046
     33 H14        -3.3181    3.5587    3.5473 H         1 <0>         0.4091
     34 H15        -1.2942   -1.5120    0.9476 H         1 <0>         0.1027
     35 H16        -3.4216    0.5088    1.6467 H         1 <0>         0.0813
     36 H17        -2.7857    0.0368    0.0396 H         1 <0>         0.0766
     37 H18        -5.2277   -0.8303    0.7842 H         1 <0>         0.0750
     38 H19        -4.1040   -1.9818   -0.0108 H         1 <0>         0.0736
     39 H20        -4.6642   -1.6279    2.9854 H         1 <0>         0.0679
     40 H21        -4.6363   -3.1453    2.0332 H         1 <0>         0.0754
     41 H22        -2.3051   -3.2493    2.0355 H         1 <0>         0.0783
     42 H23        -2.4673   -2.2380    3.4991 H         1 <0>         0.0734
     43 H24         2.0680   -1.0751    3.8247 H         1 <0>         0.4365
     44 H25         2.2710   -2.4948    3.0135 H         1 <0>         0.4300
     45 H26         3.5645   -1.5131    3.2923 H         1 <0>         0.4371
@<TRIPOS>BOND
     1    1    8 1
     2    1    2 1
     3    1   22 1
     4    1   23 1
     5    2    3 1
     6    2   24 1
     7    2   25 1
     8    3    4 1
     9    3   26 1
    10    3   27 1
    11    4    5 1
    12    4    6 1
    13    4   21 1
    14    6    7 1
    15    6    8 1
    16    6    9 1
    17    8   28 1
    18    8   29 1
    19    9   10 2
    20    9   11 am
    21   11   12 1
    22   11   16 1
    23   12   13 1
    24   12   30 1
    25   12   31 1
    26   13   14 2
    27   13   15 am
    28   15   32 1
    29   15   33 1
    30   16   20 1
    31   16   17 1
    32   16   34 1
    33   17   18 1
    34   17   35 1
    35   17   36 1
    36   18   19 1
    37   18   37 1
    38   18   38 1
    39   19   20 1
    40   19   39 1
    41   19   40 1
    42   20   41 1
    43   20   42 1
    44   21   43 1
    45   21   44 1
    46   21   45 1
@<TRIPOS>MOLECULE
ZINC42404658
   46    47     0     0     0
SMALL
USER_CHARGES

@<TRIPOS>ATOM
      1 C1          1.2397    1.5373   -1.6365 C.3       1 <0>        -0.1514
      2 C2          1.6226    0.0560   -1.6403 C.3       1 <0>        -0.0954
      3 H1          0.8598   -0.5151   -2.1696 H         1 <0>         0.0836
      4 C3          2.9706   -0.1206   -2.3420 C.3       1 <0>        -0.1145
      5 C4          4.0412    0.6810   -1.5990 C.3       1 <0>        -0.1285
      6 C5          4.1467    0.1778   -0.1580 C.3       1 <0>        -0.1523
      7 H2          4.4194   -0.8775   -0.1606 H         1 <0>         0.1068
      8 C6          2.7986    0.3544    0.5438 C.3       1 <0>         0.0945
      9 H3          2.5259    1.4097    0.5465 H         1 <0>         0.0990
     10 C7          1.7280   -0.4472   -0.1992 C.3       1 <0>        -0.0989
     11 N1          2.8998   -0.1287    1.9274 N.3       1 <0>        -0.5081
     12 C8          3.7707   -1.3081    2.0106 C.3       1 <0>         0.0542
     13 C9          3.7373   -1.8691    3.4341 C.3       1 <0>        -0.1266
     14 C10         4.2110   -0.7916    4.4134 C.3       1 <0>        -0.1198
     15 C11         3.3173    0.4437    4.2723 C.3       1 <0>        -0.1138
     16 C12         3.3629    0.9377    2.8246 C.3       1 <0>         0.0630
     17 H4          4.3860    1.2109    2.5661 H         1 <0>         0.0532
     18 C13         2.4691    2.1419    2.6765 C.2       1 <0>         0.5087
     19 O1          1.3095    2.0000    2.3505 O.2       1 <0>        -0.5028
     20 N2          2.9582    3.3765    2.9064 N.am      1 <0>        -0.8589
     21 C14         5.2173    0.9794    0.5851 C.3       1 <0>        -0.0299
     22 N3          6.4930    0.8789   -0.1363 N.4       1 <0>        -0.6368
     23 H5          2.0024    2.1083   -1.1072 H         1 <0>         0.0492
     24 H6          1.1646    1.8957   -2.6632 H         1 <0>         0.0574
     25 H7          0.2793    1.6631   -1.1366 H         1 <0>         0.0634
     26 H8          3.2434   -1.1759   -2.3447 H         1 <0>         0.0692
     27 H9          2.8955    0.2378   -3.3687 H         1 <0>         0.0757
     28 H10         5.0016    0.5552   -2.0989 H         1 <0>         0.0580
     29 H11         3.7685    1.7363   -1.5963 H         1 <0>         0.0822
     30 H12         0.7676   -0.3214    0.3007 H         1 <0>         0.0870
     31 H13         2.0007   -1.5025   -0.2019 H         1 <0>         0.0664
     32 H14         3.4203   -2.0682    1.3124 H         1 <0>         0.0896
     33 H15         4.7918   -1.0243    1.7560 H         1 <0>         0.0262
     34 H16         2.7188   -2.1660    3.6844 H         1 <0>         0.0824
     35 H17         4.3958   -2.7352    3.4994 H         1 <0>         0.0756
     36 H18         4.1477   -1.1725    5.4327 H         1 <0>         0.0789
     37 H19         5.2428   -0.5224    4.1876 H         1 <0>         0.0571
     38 H20         2.2922    0.1832    4.5358 H         1 <0>         0.0880
     39 H21         3.6759    1.2300    4.9366 H         1 <0>         0.0768
     40 H22         3.8856    3.4900    3.1672 H         1 <0>         0.3982
     41 H23         2.3829    4.1516    2.8111 H         1 <0>         0.4094
     42 H24         4.9139    2.0247    0.6427 H         1 <0>         0.1333
     43 H25         5.3369    0.5798    1.5921 H         1 <0>         0.1425
     44 H26         6.7739   -0.0888   -0.1897 H         1 <0>         0.4360
     45 H27         6.3823    1.2489   -1.0685 H         1 <0>         0.4344
     46 H28         7.1991    1.4075    0.3537 H         1 <0>         0.4380
@<TRIPOS>BOND
     1    1    2 1
     2    1   23 1
     3    1   24 1
     4    1   25 1
     5    2    3 1
     6    2   10 1
     7    2    4 1
     8    4    5 1
     9    4   26 1
    10    4   27 1
    11    5    6 1
    12    5   28 1
    13    5   29 1
    14    6    7 1
    15    6    8 1
    16    6   21 1
    17    8    9 1
    18    8   10 1
    19    8   11 1
    20   10   30 1
    21   10   31 1
    22   11   16 1
    23   11   12 1
    24   12   13 1
    25   12   32 1
    26   12   33 1
    27   13   14 1
    28   13   34 1
    29   13   35 1
    30   14   15 1
    31   14   36 1
    32   14   37 1
    33   15   16 1
    34   15   38 1
    35   15   39 1
    36   16   17 1
    37   16   18 1
    38   18   19 2
    39   18   20 am
    40   20   40 1
    41   20   41 1
    42   21   22 1
    43   21   42 1
    44   21   43 1
    45   22   44 1
    46   22   45 1
    47   22   46 1
@<TRIPOS>MOLECULE
ZINC30499083
   54    55     0     0     0
SMALL
USER_CHARGES
(2S)-N-(o-tolyl)-2-[[(1R)-1-[4-(propanoylamino)phenyl]ethyl]amino]propanamide
@<TRIPOS>ATOM
      1 C1         -0.2386    5.3401    1.3639 C.3       1 <0>        -0.1434
      2 C2         -0.0085    4.0240    0.6184 C.3       1 <0>        -0.1447
      3 C3         -1.2798    3.2147    0.6237 C.2       1 <0>         0.5173
      4 O1         -2.2722    3.6480    1.1699 O.2       1 <0>        -0.5183
      5 N1         -1.3124    2.0071    0.0261 N.am      1 <0>        -0.6948
      6 C4         -2.4603    1.2122    0.1172 C.ar      1 <0>         0.1852
      7 C5         -2.3456   -0.1697    0.1921 C.ar      1 <0>        -0.1349
      8 C6         -3.4804   -0.9512    0.2867 C.ar      1 <0>        -0.0973
      9 C7         -4.7303   -0.3596    0.2968 C.ar      1 <0>        -0.1683
     10 C8         -4.8481    1.0159    0.2170 C.ar      1 <0>        -0.0679
     11 C9         -3.7169    1.8033    0.1270 C.ar      1 <0>        -0.1167
     12 C10        -5.9666   -1.2157    0.3944 C.3       1 <0>         0.0925
     13 H1         -6.8048   -0.6152    0.7775 H         1 <0>         0.1405
     14 C11        -6.2940   -1.7976   -0.9822 C.3       1 <0>        -0.1768
     15 N2         -5.7304   -2.3103    1.3452 N.4       1 <0>        -0.5323
     16 C12        -5.8860   -1.8471    2.7305 C.3       1 <0>         0.0121
     17 H2         -5.5862   -0.7893    2.7648 H         1 <0>         0.1625
     18 C13        -7.3431   -2.0178    3.1648 C.3       1 <0>        -0.1808
     19 C14        -4.9941   -2.6584    3.6346 C.2       1 <0>         0.5068
     20 O2         -4.2974   -3.5361    3.1706 O.2       1 <0>        -0.5169
     21 N3         -4.9706   -2.4086    4.9588 N.am      1 <0>        -0.6492
     22 C15        -4.0829   -3.1049    5.7865 C.ar      1 <0>         0.1240
     23 C16        -3.6242   -4.3618    5.4137 C.ar      1 <0>        -0.1265
     24 C17        -2.7444   -5.0444    6.2304 C.ar      1 <0>        -0.1060
     25 C18        -2.3278   -4.4820    7.4233 C.ar      1 <0>        -0.1177
     26 C19        -2.7866   -3.2333    7.7997 C.ar      1 <0>        -0.0992
     27 C20        -3.6631   -2.5433    6.9849 C.ar      1 <0>        -0.1031
     28 C21        -4.1634   -1.1827    7.3965 C.3       1 <0>        -0.1225
     29 H3          0.6894    5.9308    1.3600 H         1 <0>         0.0698
     30 H4         -0.5331    5.1268    2.4020 H         1 <0>         0.0631
     31 H5         -1.0374    5.9089    0.8656 H         1 <0>         0.0643
     32 H6          0.2860    4.2373   -0.4197 H         1 <0>         0.1021
     33 H7          0.7904    3.4552    1.1166 H         1 <0>         0.1011
     34 H8         -0.4366    1.6464   -0.5333 H         1 <0>         0.4441
     35 H9         -1.3699   -0.6326    0.1798 H         1 <0>         0.1378
     36 H10        -3.3918   -2.0258    0.3485 H         1 <0>         0.1230
     37 H11        -5.8256    1.4749    0.2248 H         1 <0>         0.1364
     38 H12        -3.8096    2.8774    0.0640 H         1 <0>         0.1504
     39 H13        -7.1964   -2.4225   -0.9109 H         1 <0>         0.0860
     40 H14        -5.4501   -2.4107   -1.3312 H         1 <0>         0.0840
     41 H15        -6.4709   -0.9779   -1.6941 H         1 <0>         0.1095
     42 H16        -6.4530   -3.1188    1.1604 H         1 <0>         0.4515
     43 H17        -7.4595   -1.6709    4.2022 H         1 <0>         0.1090
     44 H18        -7.6231   -3.0796    3.0996 H         1 <0>         0.0933
     45 H19        -7.9942   -1.4256    2.5049 H         1 <0>         0.0994
     46 H20        -5.6493   -1.6573    5.3889 H         1 <0>         0.4425
     47 H21        -3.9527   -4.8034    4.4844 H         1 <0>         0.1497
     48 H22        -2.3848   -6.0203    5.9394 H         1 <0>         0.1298
     49 H23        -1.6429   -5.0196    8.0622 H         1 <0>         0.1296
     50 H24        -2.4597   -2.7970    8.7320 H         1 <0>         0.1320
     51 H25        -3.7238   -0.9085    8.3669 H         1 <0>         0.0790
     52 H26        -5.2597   -1.2062    7.4841 H         1 <0>         0.0695
     53 H27        -3.8719   -0.4403    6.6390 H         1 <0>         0.0693
     54 H28        -4.7082   -2.6952    1.2147 H         1 <0>         0.4496
@<TRIPOS>BOND
     1    1    2 1
     2    1   29 1
     3    1   30 1
     4    1   31 1
     5    2    3 1
     6    2   32 1
     7    2   33 1
     8    3    4 2
     9    3    5 am
    10    5    6 1
    11    5   34 1
    12    6   11 ar
    13    6    7 ar
    14    7    8 ar
    15    7   35 1
    16    8    9 ar
    17    8   36 1
    18    9   10 ar
    19    9   12 1
    20   10   11 ar
    21   10   37 1
    22   11   38 1
    23   12   13 1
    24   12   14 1
    25   12   15 1
    26   14   39 1
    27   14   40 1
    28   14   41 1
    29   15   16 1
    30   15   42 1
    31   15   54 1
    32   16   17 1
    33   16   18 1
    34   16   19 1
    35   18   43 1
    36   18   44 1
    37   18   45 1
    38   19   20 2
    39   19   21 am
    40   21   22 1
    41   21   46 1
    42   22   27 ar
    43   22   23 ar
    44   23   24 ar
    45   23   47 1
    46   24   25 ar
    47   24   48 1
    48   25   26 ar
    49   25   49 1
    50   26   27 ar
    51   26   50 1
    52   27   28 1
    53   28   51 1
    54   28   52 1
    55   28   53 1
@<TRIPOS>MOLECULE
ZINC37728976
   44    44     0     0     0
SMALL
USER_CHARGES

@<TRIPOS>ATOM
      1 C1         -0.5595    1.0347    0.0649 C.3       1 <0>        -0.1524
      2 C2         -0.3572   -0.4818    0.0851 C.3       1 <0>        -0.1377
      3 C3          0.3558   -0.9183   -1.1963 C.3       1 <0>         0.1182
      4 N1          0.5494   -2.3703   -1.1771 N.am      1 <0>        -0.7232
      5 C4          1.1609   -2.9823   -2.2105 C.2       1 <0>         0.5133
      6 O1          1.5508   -2.3311   -3.1564 O.2       1 <0>        -0.5189
      7 C5          1.3601   -4.4760   -2.1906 C.3       1 <0>         0.0745
      8 H1          1.8889   -4.7600   -1.2808 H         1 <0>         0.0933
      9 C6         -0.0015   -5.1727   -2.2277 C.3       1 <0>        -0.1793
     10 O2          2.1276   -4.8693   -3.3300 O.3       1 <0>        -0.2946
     11 C7          2.9817   -5.9146   -3.1680 C.ar      1 <0>         0.1170
     12 C8          4.2462   -5.7026   -2.6390 C.ar      1 <0>        -0.1279
     13 C9          5.1128   -6.7659   -2.4750 C.ar      1 <0>        -0.1070
     14 C10         4.7205   -8.0423   -2.8380 C.ar      1 <0>        -0.0231
     15 C11         3.4598   -8.2567   -3.3659 C.ar      1 <0>        -0.0773
     16 C12         2.5874   -7.1963   -3.5264 C.ar      1 <0>        -0.0337
     17 Cl1         1.0028   -7.4664   -4.1821 Cl        1 <0>        -0.0146
     18 Cl2         5.8120   -9.3763   -2.6313 Cl        1 <0>        -0.0279
     19 C13         4.6747   -4.3129   -2.2437 C.3       1 <0>        -0.0928
     20 C14         5.1071   -3.5386   -3.4905 C.3       1 <0>         0.0315
     21 H2          4.2954   -3.5388   -4.2180 H         1 <0>         0.1534
     22 C15         5.4451   -2.0973   -3.1040 C.3       1 <0>        -0.1794
     23 N2          6.2915   -4.1786   -4.0782 N.4       1 <0>        -0.6377
     24 H3          0.4096    1.5297    0.0017 H         1 <0>         0.0584
     25 H4         -1.1647    1.3090   -0.7991 H         1 <0>         0.0602
     26 H5         -1.0675    1.3456    0.9778 H         1 <0>         0.0649
     27 H6          0.2479   -0.7562    0.9491 H         1 <0>         0.0700
     28 H7         -1.3263   -0.9768    0.1483 H         1 <0>         0.0719
     29 H8         -0.2494   -0.6439   -2.0604 H         1 <0>         0.0734
     30 H9          1.3248   -0.4233   -1.2595 H         1 <0>         0.0705
     31 H10         0.2376   -2.8912   -0.4205 H         1 <0>         0.4041
     32 H11        -0.5303   -4.8887   -3.1376 H         1 <0>         0.0801
     33 H12         0.1426   -6.2530   -2.2134 H         1 <0>         0.0793
     34 H13        -0.5870   -4.8726   -1.3586 H         1 <0>         0.0815
     35 H14         6.0976   -6.6007   -2.0634 H         1 <0>         0.1495
     36 H15         3.1556   -9.2536   -3.6490 H         1 <0>         0.1595
     37 H16         3.8411   -3.7975   -1.7668 H         1 <0>         0.1174
     38 H17         5.5103   -4.3749   -1.5466 H         1 <0>         0.1066
     39 H18         4.5662   -1.6224   -2.6679 H         1 <0>         0.1083
     40 H19         6.2568   -2.0971   -2.3765 H         1 <0>         0.0815
     41 H20         5.7531   -1.5457   -3.9922 H         1 <0>         0.0867
     42 H21         6.0461   -5.0988   -4.4115 H         1 <0>         0.4327
     43 H22         6.6280   -3.6205   -4.8485 H         1 <0>         0.4387
     44 H23         7.0141   -4.2561   -3.3782 H         1 <0>         0.4308
@<TRIPOS>BOND
     1    1    2 1
     2    1   24 1
     3    1   25 1
     4    1   26 1
     5    2    3 1
     6    2   27 1
     7    2   28 1
     8    3    4 1
     9    3   29 1
    10    3   30 1
    11    4    5 am
    12    4   31 1
    13    5    6 2
    14    5    7 1
    15    7    8 1
    16    7    9 1
    17    7   10 1
    18    9   32 1
    19    9   33 1
    20    9   34 1
    21   10   11 1
    22   11   16 ar
    23   11   12 ar
    24   12   13 ar
    25   12   19 1
    26   13   14 ar
    27   13   35 1
    28   14   15 ar
    29   14   18 1
    30   15   16 ar
    31   15   36 1
    32   16   17 1
    33   19   20 1
    34   19   37 1
    35   19   38 1
    36   20   21 1
    37   20   22 1
    38   20   23 1
    39   22   39 1
    40   22   40 1
    41   22   41 1
    42   23   42 1
    43   23   43 1
    44   23   44 1
@<TRIPOS>MOLECULE
ZINC43418805
   42    42     0     0     0
SMALL
USER_CHARGES

@<TRIPOS>ATOM
      1 C1          0.0153    1.2575   -0.2120 C.3       1 <0>        -0.1690
      2 C2          0.0265   -0.2568    0.0068 C.3       1 <0>        -0.1186
      3 C3          0.7180   -0.9379   -1.1759 C.3       1 <0>        -0.1514
      4 C4          0.7844   -0.5803    1.2959 C.3       1 <0>        -0.0147
      5 N1          0.0516   -0.0327    2.4453 N.4       1 <0>        -0.3878
      6 C5         -1.2330   -0.7315    2.5851 C.3       1 <0>        -0.0030
      7 C6         -2.0562   -0.0691    3.6916 C.3       1 <0>        -0.0872
      8 C7         -3.4231   -0.7012    3.7476 C.2       1 <0>         0.3660
      9 N2         -3.7293   -1.6517    2.9281 N.2       1 <0>        -0.4304
     10 O1         -5.0137   -2.2456    2.9807 O.3       1 <0>        -0.4100
     11 N3         -4.3459   -0.2654    4.6724 N.pl3     1 <0>        -0.8634
     12 C8          0.8461   -0.2196    3.6667 C.3       1 <0>         0.0393
     13 C9          2.1095    0.5966    3.5739 C.ar      1 <0>        -0.1677
     14 C10         3.2491    0.0447    3.0185 C.ar      1 <0>        -0.0523
     15 C11         4.4084    0.7919    2.9323 C.ar      1 <0>        -0.1415
     16 C12         4.4288    2.0940    3.4023 C.ar      1 <0>         0.1659
     17 C13         3.2868    2.6463    3.9586 C.ar      1 <0>        -0.1368
     18 C14         2.1264    1.8981    4.0389 C.ar      1 <0>        -0.0377
     19 Br1         3.3122    4.4246    4.6012 Br        1 <0>         0.0041
     20 F1          5.5618    2.8252    3.3188 F         1 <0>        -0.1060
     21 H1          1.0399    1.6206   -0.2920 H         1 <0>         0.0725
     22 H2         -0.5246    1.4879   -1.1304 H         1 <0>         0.0843
     23 H3         -0.4773    1.7427    0.6306 H         1 <0>         0.0490
     24 H4         -0.9981   -0.6199    0.0869 H         1 <0>         0.0964
     25 H5          1.7426   -0.5748   -1.2560 H         1 <0>         0.0673
     26 H6          0.7259   -2.0166   -1.0201 H         1 <0>         0.0684
     27 H7          0.1780   -0.7074   -2.0943 H         1 <0>         0.0779
     28 H8          0.8736   -1.6613    1.4034 H         1 <0>         0.1351
     29 H9          1.7788   -0.1360    1.2540 H         1 <0>         0.1331
     30 H10        -1.7800   -0.6781    1.6437 H         1 <0>         0.1471
     31 H11        -1.0527   -1.7754    2.8417 H         1 <0>         0.1438
     32 H12        -1.5536   -0.2049    4.6492 H         1 <0>         0.1167
     33 H13        -2.1567    0.9958    3.4817 H         1 <0>         0.1150
     34 H14        -5.1495   -2.9472    2.3293 H         1 <0>         0.4075
     35 H15        -4.1160    0.4483    5.2877 H         1 <0>         0.4012
     36 H16        -5.2258   -0.6722    4.7084 H         1 <0>         0.4172
     37 H17         0.2662    0.1053    4.5306 H         1 <0>         0.1418
     38 H18         1.1016   -1.2736    3.7762 H         1 <0>         0.1454
     39 H19         3.2333   -0.9712    2.6522 H         1 <0>         0.1506
     40 H20         5.2983    0.3601    2.4987 H         1 <0>         0.1600
     41 H21         1.2344    2.3296    4.4684 H         1 <0>         0.1513
     42 H22        -0.1152    0.9517    2.2999 H         1 <0>         0.4204
@<TRIPOS>BOND
     1    1    2 1
     2    1   21 1
     3    1   22 1
     4    1   23 1
     5    2    3 1
     6    2    4 1
     7    2   24 1
     8    3   25 1
     9    3   26 1
    10    3   27 1
    11    4    5 1
    12    4   28 1
    13    4   29 1
    14    5    6 1
    15    5   12 1
    16    5   42 1
    17    6    7 1
    18    6   30 1
    19    6   31 1
    20    7    8 1
    21    7   32 1
    22    7   33 1
    23    8    9 2
    24    8   11 1
    25    9   10 1
    26   10   34 1
    27   11   35 1
    28   11   36 1
    29   12   13 1
    30   12   37 1
    31   12   38 1
    32   13   18 ar
    33   13   14 ar
    34   14   15 ar
    35   14   39 1
    36   15   16 ar
    37   15   40 1
    38   16   17 ar
    39   16   20 1
    40   17   18 ar
    41   17   19 1
    42   18   41 1
@<TRIPOS>MOLECULE
ZINC60361310
   50    53     0     0     0
SMALL
USER_CHARGES

@<TRIPOS>ATOM
      1 C1         -0.0184    1.3805    0.0054 C.ar      1 <0>        -0.1100
      2 C2          1.1666    2.0940    0.0131 C.ar      1 <0>        -0.0817
      3 C3          2.3774    1.4274   -0.0017 C.ar      1 <0>        -0.0972
      4 C4          2.3931    0.0395   -0.0178 C.ar      1 <0>        -0.0287
      5 C5          1.1970   -0.6786   -0.0070 C.ar      1 <0>        -0.1403
      6 C6         -0.0047   -0.0036   -0.0062 C.ar      1 <0>        -0.0826
      7 C7          1.2465   -2.1800    0.0338 C.3       1 <0>         0.0419
      8 N1          1.5448   -2.7449   -1.2819 N.4       1 <0>        -0.3604
      9 C8          2.6364   -2.0227   -1.9381 C.3       1 <0>         0.0282
     10 C9          3.7768   -1.7593   -0.9949 C.ar      1 <0>        -0.1352
     11 C10         3.6621   -0.7264   -0.0621 C.ar      1 <0>        -0.0328
     12 C11         4.7149   -0.4408    0.7968 C.ar      1 <0>        -0.0955
     13 C12         5.8697   -1.1975    0.7351 C.ar      1 <0>        -0.0840
     14 C13         5.9732   -2.2330   -0.1762 C.ar      1 <0>        -0.1069
     15 C14         4.9291   -2.5136   -1.0406 C.ar      1 <0>        -0.0888
     16 C15         1.9275   -4.1544   -1.1242 C.3       1 <0>        -0.0346
     17 C16         2.1176   -4.7783   -2.4827 C.2       1 <0>         0.5017
     18 O1          1.9508   -4.1142   -3.4837 O.2       1 <0>        -0.5121
     19 N2          2.4731   -6.0743   -2.5853 N.am      1 <0>        -0.6318
     20 C17         2.5366   -6.6820   -3.8370 C.ar      1 <0>         0.1916
     21 C18         1.7755   -6.1922   -4.8899 C.ar      1 <0>        -0.1374
     22 C19         1.8396   -6.7963   -6.1293 C.ar      1 <0>        -0.0642
     23 C20         2.6616   -7.8929   -6.3333 C.ar      1 <0>        -0.1302
     24 C21         3.4245   -8.3924   -5.3001 C.ar      1 <0>        -0.0612
     25 C22         3.3742   -7.7884   -4.0416 C.ar      1 <0>        -0.1697
     26 C23         4.1930   -8.3143   -2.9329 C.2       1 <0>         0.5759
     27 O2          4.0765   -7.8472   -1.8164 O.2       1 <0>        -0.5596
     28 N3          5.0701   -9.3127   -3.1575 N.am      1 <0>        -0.8384
     29 H1         -0.9612    1.9072    0.0130 H         1 <0>         0.1384
     30 H2          1.1457    3.1737    0.0304 H         1 <0>         0.1395
     31 H3          3.3041    1.9821   -0.0011 H         1 <0>         0.1380
     32 H4         -0.9341   -0.5537   -0.0144 H         1 <0>         0.1367
     33 H5          2.0178   -2.4916    0.7380 H         1 <0>         0.1356
     34 H6          0.2824   -2.5587    0.3733 H         1 <0>         0.1403
     35 H7          2.9996   -2.6147   -2.7781 H         1 <0>         0.1519
     36 H8          2.2583   -1.0715   -2.3128 H         1 <0>         0.1366
     37 H9          4.6320    0.3676    1.5082 H         1 <0>         0.1382
     38 H10         6.6930   -0.9797    1.3993 H         1 <0>         0.1396
     39 H11         6.8748   -2.8264   -0.2137 H         1 <0>         0.1376
     40 H12         5.0176   -3.3230   -1.7502 H         1 <0>         0.1311
     41 H13         2.8591   -4.2172   -0.5619 H         1 <0>         0.1618
     42 H14         1.1422   -4.6861   -0.5869 H         1 <0>         0.1670
     43 H15         2.6847   -6.5838   -1.7875 H         1 <0>         0.4340
     44 H16         1.1323   -5.3378   -4.7388 H         1 <0>         0.1520
     45 H17         1.2451   -6.4120   -6.9450 H         1 <0>         0.1388
     46 H18         2.7044   -8.3586   -7.3067 H         1 <0>         0.1393
     47 H19         4.0633   -9.2476   -5.4643 H         1 <0>         0.1370
     48 H20         5.1630   -9.6853   -4.0483 H         1 <0>         0.4071
     49 H21         5.6085   -9.6585   -2.4285 H         1 <0>         0.4125
     50 H22         0.7191   -2.6907   -1.8593 H         1 <0>         0.4316
@<TRIPOS>BOND
     1    1    6 ar
     2    1    2 ar
     3    1   29 1
     4    2    3 ar
     5    2   30 1
     6    3    4 ar
     7    3   31 1
     8    4   11 1
     9    4    5 ar
    10    5    6 ar
    11    5    7 1
    12    6   32 1
    13    7    8 1
    14    7   33 1
    15    7   34 1
    16    8    9 1
    17    8   16 1
    18    8   50 1
    19    9   10 1
    20    9   35 1
    21    9   36 1
    22   10   15 ar
    23   10   11 ar
    24   11   12 ar
    25   12   13 ar
    26   12   37 1
    27   13   14 ar
    28   13   38 1
    29   14   15 ar
    30   14   39 1
    31   15   40 1
    32   16   17 1
    33   16   41 1
    34   16   42 1
    35   17   18 2
    36   17   19 am
    37   19   20 1
    38   19   43 1
    39   20   25 ar
    40   20   21 ar
    41   21   22 ar
    42   21   44 1
    43   22   23 ar
    44   22   45 1
    45   23   24 ar
    46   23   46 1
    47   24   25 ar
    48   24   47 1
    49   25   26 1
    50   26   27 2
    51   26   28 am
    52   28   48 1
    53   28   49 1
@<TRIPOS>MOLECULE
ZINC58332649
   47    49     0     0     0
SMALL
USER_CHARGES

@<TRIPOS>ATOM
      1 C1         -0.0187    1.5258    0.0104 C.3       1 <0>        -0.1716
      2 C2          0.0021   -0.0041    0.0020 C.3       1 <0>         0.2007
      3 H1         -1.0205   -0.3814    0.0098 H         1 <0>         0.1429
      4 C3          0.7309   -0.5033    1.2229 C.cat     1 <0>         0.3161
      5 N1          2.0586   -0.7418    1.3013 N.pl3     1 <0>        -0.4995
      6 H2          2.7062   -0.6229    0.5891 H         1 <0>         0.4640
      7 C4          2.3215   -1.1805    2.5688 C.2       1 <0>         0.0407
      8 C5          1.1349   -1.1961    3.2304 C.2       1 <0>         0.1000
      9 N2          0.1832   -0.7694    2.3755 N.pl3     1 <0>        -0.4646
     10 C6          0.9249   -1.6035    4.6415 C.ar      1 <0>        -0.0669
     11 C7         -0.3541   -1.5769    5.1941 C.ar      1 <0>        -0.1005
     12 C8         -0.5437   -1.9569    6.5073 C.ar      1 <0>        -0.1071
     13 C9          0.5330   -2.3632    7.2747 C.ar      1 <0>        -0.0838
     14 C10         1.8048   -2.3912    6.7315 C.ar      1 <0>        -0.1077
     15 C11         2.0050   -2.0197    5.4175 C.ar      1 <0>        -0.0813
     16 N3          0.6878   -0.4765   -1.2033 N.am      1 <0>        -0.7423
     17 C12         0.0062   -0.6081   -2.3585 C.2       1 <0>         0.5275
     18 O1         -1.1748   -0.3355   -2.4003 O.2       1 <0>        -0.5105
     19 C13         0.7116   -1.0941   -3.5984 C.3       1 <0>        -0.1319
     20 C14        -0.2819   -1.1527   -4.7605 C.3       1 <0>        -0.0572
     21 C15         0.4235   -1.6387   -6.0004 C.ar      1 <0>        -0.1188
     22 C16         0.9328   -0.7294   -6.9074 C.ar      1 <0>        -0.1000
     23 C17         1.5796   -1.1746   -8.0453 C.ar      1 <0>        -0.1241
     24 C18         1.7188   -2.5305   -8.2785 C.ar      1 <0>        -0.1009
     25 C19         1.2118   -3.4436   -7.3746 C.ar      1 <0>        -0.1424
     26 C20         0.5669   -2.9993   -6.2292 C.ar      1 <0>         0.1074
     27 O2          0.0721   -3.8956   -5.3355 O.3       1 <0>        -0.4997
     28 H3          1.0039    1.9031    0.0027 H         1 <0>         0.0747
     29 H4         -0.5459    1.8868   -0.8726 H         1 <0>         0.1013
     30 H5         -0.5289    1.8773    0.9072 H         1 <0>         0.0830
     31 H6          3.2855   -1.4609    2.9671 H         1 <0>         0.2332
     32 H7         -1.1954   -1.2591    4.5960 H         1 <0>         0.1217
     33 H8         -1.5345   -1.9366    6.9366 H         1 <0>         0.1389
     34 H9          0.3802   -2.6594    8.3020 H         1 <0>         0.1386
     35 H10         2.6420   -2.7090    7.3353 H         1 <0>         0.1412
     36 H11         2.9976   -2.0469    4.9927 H         1 <0>         0.1346
     37 H12         1.6324   -0.6946   -1.1699 H         1 <0>         0.4007
     38 H13         1.5220   -0.4092   -3.8474 H         1 <0>         0.1019
     39 H14         1.1190   -2.0889   -3.4183 H         1 <0>         0.1056
     40 H15        -1.0924   -1.8377   -4.5115 H         1 <0>         0.0821
     41 H16        -0.6894   -0.1579   -4.9407 H         1 <0>         0.0820
     42 H17         0.8253    0.3301   -6.7275 H         1 <0>         0.1273
     43 H18         1.9764   -0.4622   -8.7534 H         1 <0>         0.1284
     44 H19         2.2242   -2.8758   -9.1683 H         1 <0>         0.1297
     45 H20         1.3208   -4.5024   -7.5572 H         1 <0>         0.1305
     46 H21        -0.8404   -4.1632   -5.5110 H         1 <0>         0.3922
     47 H22        -0.7596   -0.6775    2.5843 H         1 <0>         0.4640
@<TRIPOS>BOND
     1    1    2 1
     2    1   28 1
     3    1   29 1
     4    1   30 1
     5    2    3 1
     6    2    4 1
     7    2   16 1
     8    4    9 2
     9    4    5 1
    10    5    6 1
    11    5    7 1
    12    7    8 2
    13    7   31 1
    14    8    9 1
    15    8   10 1
    16    9   47 1
    17   10   15 ar
    18   10   11 ar
    19   11   12 ar
    20   11   32 1
    21   12   13 ar
    22   12   33 1
    23   13   14 ar
    24   13   34 1
    25   14   15 ar
    26   14   35 1
    27   15   36 1
    28   16   17 am
    29   16   37 1
    30   17   18 2
    31   17   19 1
    32   19   20 1
    33   19   38 1
    34   19   39 1
    35   20   21 1
    36   20   40 1
    37   20   41 1
    38   21   26 ar
    39   21   22 ar
    40   22   23 ar
    41   22   42 1
    42   23   24 ar
    43   23   43 1
    44   24   25 ar
    45   24   44 1
    46   25   26 ar
    47   25   45 1
    48   26   27 1
    49   27   46 1
@<TRIPOS>MOLECULE
ZINC19436208
   40    41     0     0     0
SMALL
USER_CHARGES
3-(2,4-dioxo-1,3-diazaspiro[4.7]dodecan-3-yl)propanethioamide
@<TRIPOS>ATOM
      1 C1         -3.2233    0.2671   -0.0288 C.3       1 <0>        -0.1165
      2 C2         -3.0576    1.1576   -1.2527 C.3       1 <0>        -0.1330
      3 C3         -1.6550    0.9984   -1.8381 C.3       1 <0>        -0.1272
      4 C4         -0.6886    2.0173   -1.2404 C.3       1 <0>        -0.1186
      5 C5         -0.0178    1.4634    0.0101 C.3       1 <0>         0.1190
      6 C6         -0.6633    1.9773    1.2894 C.3       1 <0>        -0.1193
      7 C7         -2.1486    2.2713    1.1064 C.3       1 <0>        -0.1438
      8 C8         -2.9751    1.0049    1.2780 C.3       1 <0>        -0.1260
      9 C9          1.4518    1.8408   -0.0019 C.2       1 <0>         0.5249
     10 O1          1.9123    2.9615    0.0133 O.2       1 <0>        -0.4617
     11 N1          2.1271    0.6749   -0.0346 N.am      1 <0>        -0.5767
     12 C10         1.2969   -0.3747   -0.0405 C.2       1 <0>         0.7085
     13 O2          1.6678   -1.5314   -0.0758 O.2       1 <0>        -0.5408
     14 N2          0.0021   -0.0041    0.0020 N.am      1 <0>        -0.7295
     15 C11         3.5885    0.5682   -0.0606 C.3       1 <0>         0.1291
     16 C12         4.0734    0.5572   -1.5117 C.3       1 <0>        -0.1316
     17 C13         5.5761    0.4474   -1.5383 C.2       1 <0>         0.2983
     18 S1          6.3961    0.3640   -0.1681 S.2       1 <0>        -0.4648
     19 N3          6.2290    0.4194   -2.7171 N.pl3     1 <0>        -0.7990
     20 H1         -2.5101   -0.5653   -0.1211 H         1 <0>         0.0516
     21 H2         -4.2502   -0.1272   -0.0380 H         1 <0>         0.0698
     22 H3         -3.7990    0.8752   -2.0147 H         1 <0>         0.0680
     23 H4         -3.2096    2.2084   -0.9649 H         1 <0>         0.0803
     24 H5         -1.2790   -0.0120   -1.6196 H         1 <0>         0.0746
     25 H6         -1.6931    1.1478   -2.9272 H         1 <0>         0.0709
     26 H7          0.0888    2.2625   -1.9790 H         1 <0>         0.0699
     27 H8         -1.2392    2.9306   -0.9707 H         1 <0>         0.0971
     28 H9         -0.5594    1.2214    2.0817 H         1 <0>         0.0812
     29 H10        -0.1667    2.9075    1.6027 H         1 <0>         0.0850
     30 H11        -2.4712    3.0096    1.8553 H         1 <0>         0.0724
     31 H12        -2.3212    2.6734    0.0972 H         1 <0>         0.0938
     32 H13        -3.9379    1.2954    1.7236 H         1 <0>         0.0658
     33 H14        -2.4330    0.3471    1.9732 H         1 <0>         0.0647
     34 H15        -0.9425   -0.5671    0.0288 H         1 <0>         0.4620
     35 H16         4.0283    1.4277    0.4664 H         1 <0>         0.1147
     36 H17         3.8970   -0.3635    0.4362 H         1 <0>         0.1174
     37 H18         3.6335   -0.3023   -2.0388 H         1 <0>         0.1051
     38 H19         3.7650    1.4889   -2.0085 H         1 <0>         0.1015
     39 H20         7.3259    0.3393   -2.7365 H         1 <0>         0.4455
     40 H21         5.6649    0.4767   -3.6597 H         1 <0>         0.4174
@<TRIPOS>BOND
     1    1    8 1
     2    1    2 1
     3    1   20 1
     4    1   21 1
     5    2    3 1
     6    2   22 1
     7    2   23 1
     8    3    4 1
     9    3   24 1
    10    3   25 1
    11    4    5 1
    12    4   26 1
    13    4   27 1
    14    5   14 1
    15    5    6 1
    16    5    9 1
    17    6    7 1
    18    6   28 1
    19    6   29 1
    20    7    8 1
    21    7   30 1
    22    7   31 1
    23    8   32 1
    24    8   33 1
    25    9   10 2
    26    9   11 am
    27   11   12 am
    28   11   15 1
    29   12   13 2
    30   12   14 am
    31   14   34 1
    32   15   16 1
    33   15   35 1
    34   15   36 1
    35   16   17 1
    36   16   37 1
    37   16   38 1
    38   17   18 2
    39   17   19 1
    40   19   39 1
    41   19   40 1
@<TRIPOS>MOLECULE
ZINC37073605
   33    35     0     0     0
SMALL
USER_CHARGES

@<TRIPOS>ATOM
      1 C1         -0.0187    1.5258    0.0104 C.3       1 <0>        -0.1681
      2 C2          0.0021   -0.0041    0.0020 C.3       1 <0>         0.2370
      3 H1          0.5123   -0.3556   -0.8948 H         1 <0>         0.1026
      4 C3         -1.4117   -0.5257    0.0127 C.2       1 <0>        -0.1609
      5 C4         -2.1573   -0.9923   -1.0187 C.2       1 <0>        -0.1419
      6 C5         -3.4466   -1.4250   -0.7719 C.2       1 <0>        -0.1579
      7 C6         -3.9274   -1.3700    0.4943 C.2       1 <0>        -0.1655
      8 S1         -2.5366   -0.6968    1.3885 S.3       1 <0>         0.0416
      9 N1          0.7106   -0.4894    1.1889 N.pl3     1 <0>        -0.7371
     10 C7          2.1037   -0.6039    1.1731 C.ar      1 <0>         0.2379
     11 C8          2.8170   -0.2513    0.0316 C.ar      1 <0>        -0.1818
     12 C9          4.1910   -0.3621    0.0114 C.ar      1 <0>        -0.0642
     13 C10         4.8706   -0.8271    1.1325 C.ar      1 <0>         0.0558
     14 C11         4.1576   -1.1822    2.2794 C.ar      1 <0>         0.1717
     15 C12         2.7730   -1.0631    2.2963 C.ar      1 <0>        -0.2016
     16 N2          4.8220   -1.6497    3.4096 N.am      1 <0>        -0.6345
     17 H2          4.3176   -1.8943    4.2012 H         1 <0>         0.4218
     18 C13         6.1656   -1.7634    3.4061 C.2       1 <0>         0.5093
     19 O1          6.7492   -2.1713    4.3902 O.2       1 <0>        -0.4687
     20 C14         6.9278   -1.3840    2.1821 C.2       1 <0>         0.5057
     21 O2          8.1386   -1.4794    2.1592 O.2       1 <0>        -0.4754
     22 N3          6.2595   -0.9348    1.1005 N.am      1 <0>        -0.6283
     23 H3          6.7462   -0.6861    0.2992 H         1 <0>         0.4211
     24 H4          1.0039    1.9031    0.0027 H         1 <0>         0.0716
     25 H5         -0.5459    1.8868   -0.8726 H         1 <0>         0.0712
     26 H6         -0.5289    1.8773    0.9072 H         1 <0>         0.0638
     27 H7         -1.7501   -1.0251   -2.0185 H         1 <0>         0.1356
     28 H8         -4.0619   -1.8010   -1.5759 H         1 <0>         0.1371
     29 H9         -4.8985   -1.6616    0.8663 H         1 <0>         0.1878
     30 H10         0.2131   -0.7312    1.9857 H         1 <0>         0.4025
     31 H11         2.2928    0.1098   -0.8410 H         1 <0>         0.1353
     32 H12         4.7408   -0.0876   -0.8768 H         1 <0>         0.1398
     33 H13         2.2185   -1.3322    3.1831 H         1 <0>         0.1366
@<TRIPOS>BOND
     1    1    2 1
     2    1   24 1
     3    1   25 1
     4    1   26 1
     5    2    3 1
     6    2    4 1
     7    2    9 1
     8    4    8 1
     9    4    5 2
    10    5    6 1
    11    5   27 1
    12    6    7 2
    13    6   28 1
    14    7    8 1
    15    7   29 1
    16    9   10 1
    17    9   30 1
    18   10   15 ar
    19   10   11 ar
    20   11   12 ar
    21   11   31 1
    22   12   13 ar
    23   12   32 1
    24   13   22 1
    25   13   14 ar
    26   14   15 ar
    27   14   16 1
    28   15   33 1
    29   16   17 1
    30   16   18 am
    31   18   19 2
    32   18   20 1
    33   20   21 2
    34   20   22 am
    35   22   23 1
@<TRIPOS>MOLECULE
ZINC48606687
   34    35     0     0     0
SMALL
USER_CHARGES

@<TRIPOS>ATOM
      1 C1          0.0874    1.2929   -0.3275 C.2       1 <0>        -0.0963
      2 C2          1.3792    1.7428   -0.0345 C.2       1 <0>        -0.1230
      3 C3          2.0477    0.7263    0.5624 C.2       1 <0>         0.0363
      4 N1          1.2226   -0.3462    0.6551 N.pl3     1 <0>        -0.5347
      5 H1          1.4528   -1.2052    1.0426 H         1 <0>         0.4267
      6 C4          0.0042   -0.0126    0.1087 C.2       1 <0>        -0.0366
      7 C5         -1.1692   -0.8868    0.0085 C.2       1 <0>         0.5902
      8 O1         -2.2879   -0.4079    0.0250 O.2       1 <0>        -0.5200
      9 N2         -1.0086   -2.2204   -0.1020 N.am      1 <0>        -0.6097
     10 C6          0.3353   -2.8141   -0.1135 C.3       1 <0>         0.0871
     11 C7          0.4736   -3.6971   -1.3577 C.3       1 <0>        -0.1296
     12 C8         -0.6653   -4.7190   -1.3823 C.3       1 <0>        -0.0726
     13 C9         -2.0077   -3.9878   -1.4558 C.3       1 <0>        -0.1349
     14 C10        -2.1743   -3.1086   -0.2070 C.3       1 <0>         0.1142
     15 C11        -0.5108   -5.6251   -2.6054 C.3       1 <0>        -0.1398
     16 C12        -1.5588   -6.7072   -2.5646 C.2       1 <0>         0.5152
     17 O2         -2.3513   -6.7496   -1.6475 O.2       1 <0>        -0.5384
     18 N3         -1.6155   -7.6279   -3.5472 N.am      1 <0>        -0.8583
     19 Cl1         2.0134    3.3224   -0.3756 Cl        1 <0>        -0.0427
     20 H2         -0.6982    1.8623   -0.8017 H         1 <0>         0.1571
     21 H3          3.0703    0.7640    0.9078 H         1 <0>         0.1827
     22 H4          1.0842   -2.0227   -0.1419 H         1 <0>         0.0890
     23 H5          0.4747   -3.4200    0.7819 H         1 <0>         0.0762
     24 H6          0.4243   -3.0758   -2.2519 H         1 <0>         0.0726
     25 H7          1.4301   -4.2189   -1.3289 H         1 <0>         0.0799
     26 H8         -0.6303   -5.3237   -0.4760 H         1 <0>         0.0833
     27 H9         -2.0336   -3.3638   -2.3491 H         1 <0>         0.0635
     28 H10        -2.8172   -4.7165   -1.4968 H         1 <0>         0.0967
     29 H11        -2.2353   -3.7380    0.6808 H         1 <0>         0.0726
     30 H12        -3.0817   -2.5115   -0.2972 H         1 <0>         0.0966
     31 H13        -0.6338   -5.0342   -3.5131 H         1 <0>         0.0959
     32 H14         0.4803   -6.0787   -2.5987 H         1 <0>         0.0967
     33 H15        -0.9817   -7.5940   -4.2807 H         1 <0>         0.4018
     34 H16        -2.2901   -8.3244   -3.5209 H         1 <0>         0.4023
@<TRIPOS>BOND
     1    1    6 2
     2    1    2 1
     3    1   20 1
     4    2    3 2
     5    2   19 1
     6    3    4 1
     7    3   21 1
     8    4    5 1
     9    4    6 1
    10    6    7 1
    11    7    8 2
    12    7    9 am
    13    9   14 1
    14    9   10 1
    15   10   11 1
    16   10   22 1
    17   10   23 1
    18   11   12 1
    19   11   24 1
    20   11   25 1
    21   12   13 1
    22   12   15 1
    23   12   26 1
    24   13   14 1
    25   13   27 1
    26   13   28 1
    27   14   29 1
    28   14   30 1
    29   15   16 1
    30   15   31 1
    31   15   32 1
    32   16   17 2
    33   16   18 am
    34   18   33 1
    35   18   34 1
@<TRIPOS>MOLECULE
ZINC51035954
   32    34     0     0     0
SMALL
USER_CHARGES

@<TRIPOS>ATOM
      1 C1         -0.0187    1.5258    0.0104 C.3       1 <0>        -0.1456
      2 C2          0.0021   -0.0041    0.0020 C.3       1 <0>        -0.0054
      3 H1          0.5293   -0.3651    0.8851 H         1 <0>         0.1068
      4 C3          0.7074   -0.4901   -1.2379 C.ar      1 <0>        -0.1398
      5 C4          0.2204   -0.1501   -2.4867 C.ar      1 <0>        -0.0518
      6 C5          0.8644   -0.5938   -3.6250 C.ar      1 <0>        -0.1973
      7 C6          2.0026   -1.3824   -3.5144 C.ar      1 <0>         0.2246
      8 C7          2.4891   -1.7221   -2.2584 C.ar      1 <0>        -0.1973
      9 C8          1.8435   -1.2703   -1.1242 C.ar      1 <0>        -0.0481
     10 N1          2.6561   -1.8332   -4.6636 N.pl3     1 <0>        -0.8763
     11 S1         -1.6997   -0.6320    0.0149 S.3       1 <0>        -0.0598
     12 C9         -2.3349   -0.1100    1.5733 C.ar      1 <0>         0.2049
     13 C10        -3.6434   -0.4203    1.9515 C.ar      1 <0>        -0.0563
     14 C11        -4.1035    0.0176    3.2038 C.ar      1 <0>         0.3062
     15 N2         -5.3759   -0.4062    3.3220 N.2       1 <0>        -0.4882
     16 H2         -4.6953   -1.5269    0.5030 H         1 <0>         0.4328
     17 C12        -5.7240   -1.0619    2.2499 C.2       1 <0>         0.3087
     18 N3         -4.6945   -1.1003    1.3742 N.pl3     1 <0>        -0.5730
     19 N4         -3.2713    0.7144    3.9851 N.ar      1 <0>        -0.4864
     20 C13        -2.0476    0.9829    3.5870 C.ar      1 <0>         0.3145
     21 N5         -1.5770    0.5843    2.4192 N.ar      1 <0>        -0.5180
     22 H3          1.0039    1.9031    0.0027 H         1 <0>         0.0701
     23 H4         -0.5459    1.8868   -0.8726 H         1 <0>         0.0617
     24 H5         -0.5289    1.8773    0.9072 H         1 <0>         0.0771
     25 H6         -0.6647    0.4628   -2.5719 H         1 <0>         0.1244
     26 H7          0.4833   -0.3282   -4.6000 H         1 <0>         0.1226
     27 H8          3.3736   -2.3354   -2.1690 H         1 <0>         0.1233
     28 H9          2.2238   -1.5303   -0.1474 H         1 <0>         0.1243
     29 H10         2.3152   -1.5957   -5.5401 H         1 <0>         0.3995
     30 H11         3.4508   -2.3839   -4.5851 H         1 <0>         0.3996
     31 H12        -6.6933   -1.5088    2.0854 H         1 <0>         0.2343
     32 H13        -1.4008    1.5478    4.2420 H         1 <0>         0.2079
@<TRIPOS>BOND
     1    1    2 1
     2    1   22 1
     3    1   23 1
     4    1   24 1
     5    2    3 1
     6    2    4 1
     7    2   11 1
     8    4    9 ar
     9    4    5 ar
    10    5    6 ar
    11    5   25 1
    12    6    7 ar
    13    6   26 1
    14    7    8 ar
    15    7   10 1
    16    8    9 ar
    17    8   27 1
    18    9   28 1
    19   10   29 1
    20   10   30 1
    21   11   12 1
    22   12   21 ar
    23   12   13 ar
    24   13   14 ar
    25   13   18 1
    26   14   15 1
    27   14   19 ar
    28   15   17 2
    29   16   18 1
    30   17   31 1
    31   17   18 1
    32   19   20 ar
    33   20   32 1
    34   20   21 ar
@<TRIPOS>MOLECULE
ZINC61638930
   37    38     0     0     0
SMALL
USER_CHARGES

@<TRIPOS>ATOM
      1 C1         -0.0187    1.5258    0.0104 C.3       1 <0>        -0.1456
      2 C2          0.0021   -0.0041    0.0020 C.3       1 <0>         0.0874
      3 H1          0.5122   -0.3562   -0.8946 H         1 <0>         0.0705
      4 C3         -1.4339   -0.5349    0.0151 C.3       1 <0>         0.0254
      5 N1         -1.4075   -2.0031    0.0848 N.3       1 <0>        -0.5224
      6 C4         -0.6922   -2.4548    1.2872 C.3       1 <0>         0.0274
      7 C5          0.7363   -1.9047    1.2614 C.3       1 <0>         0.0904
      8 H2          1.2526   -2.1894    2.1782 H         1 <0>         0.1024
      9 O1          0.6919   -0.4787    1.1614 O.3       1 <0>        -0.3767
     10 C6          1.4830   -2.4783    0.0554 C.3       1 <0>        -0.1741
     11 C7         -2.7675   -2.5567    0.0422 C.3       1 <0>         0.0995
     12 C8         -2.6960   -4.0520   -0.1318 C.ar      1 <0>         0.1991
     13 C9         -2.6768   -4.5904   -1.4041 C.ar      1 <0>        -0.1286
     14 C10        -2.6108   -5.9695   -1.5579 C.ar      1 <0>        -0.0223
     15 C11        -2.5664   -6.7588   -0.4225 C.ar      1 <0>        -0.2256
     16 C12        -2.5892   -6.1487    0.8271 C.ar      1 <0>         0.4132
     17 N2         -2.6471   -4.8301    0.9327 N.ar      1 <0>        -0.5093
     18 N3         -2.5455   -6.9305    1.9763 N.pl3     1 <0>        -0.5709
     19 N4         -2.5676   -6.3379    3.2069 N.3       1 <0>        -0.5965
     20 Cl1        -2.7351   -3.5545   -2.7959 Cl        1 <0>        -0.0549
     21 H3          1.0039    1.9031    0.0027 H         1 <0>         0.0664
     22 H4         -0.5459    1.8868   -0.8726 H         1 <0>         0.0727
     23 H5         -0.5289    1.8773    0.9072 H         1 <0>         0.0625
     24 H6         -1.9605   -0.1387    0.8833 H         1 <0>         0.0455
     25 H7         -1.9455   -0.2229   -0.8954 H         1 <0>         0.0875
     26 H8         -1.2069   -2.0892    2.1757 H         1 <0>         0.0452
     27 H9         -0.6624   -3.5442    1.3053 H         1 <0>         0.0875
     28 H10         0.9671   -2.1920   -0.8611 H         1 <0>         0.0723
     29 H11         2.4999   -2.0863    0.0376 H         1 <0>         0.0575
     30 H12         1.5138   -3.5653    0.1305 H         1 <0>         0.0598
     31 H13        -3.2839   -2.3236    0.9734 H         1 <0>         0.0594
     32 H14        -3.3119   -2.1192   -0.7946 H         1 <0>         0.0992
     33 H15        -2.5949   -6.4154   -2.5414 H         1 <0>         0.1455
     34 H16        -2.5151   -7.8344   -0.5055 H         1 <0>         0.1393
     35 H17        -2.4994   -7.8968    1.9041 H         1 <0>         0.4128
     36 H18        -2.5305   -7.0285    3.9416 H         1 <0>         0.3556
     37 H19        -1.8169   -5.6701    3.3001 H         1 <0>         0.3430
@<TRIPOS>BOND
     1    1    2 1
     2    1   21 1
     3    1   22 1
     4    1   23 1
     5    2    3 1
     6    2    9 1
     7    2    4 1
     8    4    5 1
     9    4   24 1
    10    4   25 1
    11    5    6 1
    12    5   11 1
    13    6    7 1
    14    6   26 1
    15    6   27 1
    16    7    8 1
    17    7    9 1
    18    7   10 1
    19   10   28 1
    20   10   29 1
    21   10   30 1
    22   11   12 1
    23   11   31 1
    24   11   32 1
    25   12   17 ar
    26   12   13 ar
    27   13   14 ar
    28   13   20 1
    29   14   15 ar
    30   14   33 1
    31   15   16 ar
    32   15   34 1
    33   16   17 ar
    34   16   18 1
    35   18   19 1
    36   18   35 1
    37   19   36 1
    38   19   37 1
@<TRIPOS>MOLECULE
ZINC05408939
   54    57     0     0     0
SMALL
USER_CHARGES
4-amino-2-[3-[(4-fluorophenoxy)methyl]-2,4,6-trimethyl-phenyl]-9-methyl-5-oxa-7,8-diazabicyclo[4.3.0]nona-3,6,9-triene-3-carbonitrile
@<TRIPOS>ATOM
      1 C1         -0.1389    7.9264    2.6075 C.3       1 <0>        -0.1208
      2 C2         -0.5955    8.4726    1.2793 C.ar      1 <0>        -0.0509
      3 C3         -0.7186    9.8378    1.0987 C.ar      1 <0>        -0.1296
      4 C4         -1.1424   10.3385   -0.1178 C.ar      1 <0>        -0.0392
      5 C5         -1.4387    9.4744   -1.1556 C.ar      1 <0>        -0.0841
      6 C6         -1.3115    8.1098   -0.9764 C.ar      1 <0>        -0.0452
      7 C7         -0.8871    7.6090    0.2403 C.ar      1 <0>        -0.1061
      8 C8         -0.7484    6.1212    0.4357 C.3       1 <0>         0.0983
      9 O1          0.5742    5.7151    0.0779 O.3       1 <0>        -0.3012
     10 C9          0.8673    4.3929    0.1971 C.ar      1 <0>         0.1226
     11 C10         2.1324    3.9299   -0.1331 C.ar      1 <0>        -0.1235
     12 C11         2.4291    2.5861   -0.0110 C.ar      1 <0>        -0.1121
     13 C12         1.4643    1.7018    0.4408 C.ar      1 <0>         0.0583
     14 C13         0.1994    2.1618    0.7653 C.ar      1 <0>        -0.1112
     15 C14        -0.0983    3.5059    0.6496 C.ar      1 <0>        -0.1830
     16 F1          1.7558    0.3880    0.5597 F         1 <0>        -0.1406
     17 C15        -1.6349    7.1679   -2.1075 C.3       1 <0>        -0.1345
     18 C16        -1.9008   10.0203   -2.4821 C.3       1 <0>         0.1218
     19 H1         -2.2471    9.2036   -3.1155 H         1 <0>         0.0988
     20 C17        -0.7640   10.7425   -3.1590 C.2       1 <0>        -0.2701
     21 C18         0.3402   10.2478   -3.7386 C.2       1 <0>         0.1413
     22 N1          1.0622   11.2930   -4.2046 N.pl3     1 <0>        -0.4642
     23 H2          1.9374   11.2344   -4.6848 H         1 <0>         0.4573
     24 N2          0.3686   12.4741   -3.8965 N.2       1 <0>        -0.2571
     25 C19        -0.7257   12.1497   -3.2712 C.2       1 <0>         0.2698
     26 O2         -1.7165   12.9398   -2.7773 O.3       1 <0>        -0.2131
     27 C20        -2.8673   12.3387   -2.4153 C.2       1 <0>         0.4449
     28 C21        -3.0211   11.0058   -2.2644 C.2       1 <0>        -0.2673
     29 C22        -4.3063   10.5045   -1.8801 C.1       1 <0>         0.2714
     30 N3         -5.3258   10.1069   -1.5752 N.1       1 <0>        -0.4420
     31 N4         -3.9596   13.1373   -2.1842 N.pl3     1 <0>        -0.8318
     32 C23         0.7099    8.7911   -3.8500 C.3       1 <0>        -0.1115
     33 C24        -1.2811   11.8263   -0.3132 C.3       1 <0>        -0.1364
     34 H3          0.9480    7.8443    2.6124 H         1 <0>         0.0754
     35 H4         -0.4561    8.5982    3.4051 H         1 <0>         0.0684
     36 H5         -0.5783    6.9415    2.7658 H         1 <0>         0.0670
     37 H6         -0.4868   10.5128    1.9093 H         1 <0>         0.1233
     38 H7         -1.4707    5.6030   -0.1950 H         1 <0>         0.0735
     39 H8         -0.9344    5.8730    1.4807 H         1 <0>         0.0745
     40 H9          2.8850    4.6194   -0.4859 H         1 <0>         0.1410
     41 H10         3.4141    2.2254   -0.2678 H         1 <0>         0.1424
     42 H11        -0.5536    1.4702    1.1134 H         1 <0>         0.1381
     43 H12        -1.0838    3.8651    0.9068 H         1 <0>         0.1371
     44 H13        -2.7039    6.9547   -2.1084 H         1 <0>         0.0752
     45 H14        -1.3555    7.6286   -3.0551 H         1 <0>         0.0784
     46 H15        -1.0793    6.2393   -1.9771 H         1 <0>         0.0729
     47 H16        -3.8865   14.0995   -2.2830 H         1 <0>         0.4125
     48 H17        -4.8045   12.7394   -1.9220 H         1 <0>         0.4269
     49 H18         0.3021    8.3825   -4.7746 H         1 <0>         0.0903
     50 H19         1.7953    8.6912   -3.8562 H         1 <0>         0.0801
     51 H20         0.2997    8.2461   -2.9998 H         1 <0>         0.1002
     52 H21        -2.3220   12.1162   -0.1693 H         1 <0>         0.0718
     53 H22        -0.6553   12.3478    0.4110 H         1 <0>         0.0626
     54 H23        -0.9665   12.0911   -1.3226 H         1 <0>         0.0795
@<TRIPOS>BOND
     1    1    2 1
     2    1   34 1
     3    1   35 1
     4    1   36 1
     5    2    7 ar
     6    2    3 ar
     7    3    4 ar
     8    3   37 1
     9    4    5 ar
    10    4   33 1
    11    5    6 ar
    12    5   18 1
    13    6    7 ar
    14    6   17 1
    15    7    8 1
    16    8    9 1
    17    8   38 1
    18    8   39 1
    19    9   10 1
    20   10   15 ar
    21   10   11 ar
    22   11   12 ar
    23   11   40 1
    24   12   13 ar
    25   12   41 1
    26   13   14 ar
    27   13   16 1
    28   14   15 ar
    29   14   42 1
    30   15   43 1
    31   17   44 1
    32   17   45 1
    33   17   46 1
    34   18   19 1
    35   18   28 1
    36   18   20 1
    37   20   25 1
    38   20   21 2
    39   21   22 1
    40   21   32 1
    41   22   23 1
    42   22   24 1
    43   24   25 2
    44   25   26 1
    45   26   27 1
    46   27   28 2
    47   27   31 1
    48   28   29 1
    49   29   30 3
    50   31   47 1
    51   31   48 1
    52   32   49 1
    53   32   50 1
    54   32   51 1
    55   33   52 1
    56   33   53 1
    57   33   54 1
@<TRIPOS>MOLECULE
ZINC08771413
   50    52     0     0     0
SMALL
USER_CHARGES
4-methyl-N-(1-phenylethyl)-2-(p-tolylcarbamoylamino)thiazole-5-carboxamide
@<TRIPOS>ATOM
      1 C1          1.1428    3.5928   -0.0190 C.3       1 <0>        -0.1153
      2 C2          1.1680    2.0860   -0.0193 C.ar      1 <0>        -0.0972
      3 C3          2.1110    1.4119   -0.7733 C.ar      1 <0>        -0.0993
      4 C4          2.1367    0.0310   -0.7757 C.ar      1 <0>        -0.1136
      5 C5          1.2142   -0.6805   -0.0198 C.ar      1 <0>         0.1512
      6 C6          0.2684   -0.0005    0.7363 C.ar      1 <0>        -0.1380
      7 C7          0.2480    1.3805    0.7344 C.ar      1 <0>        -0.1008
      8 N1          1.2372   -2.0796   -0.0204 N.am      1 <0>        -0.6751
      9 C8          2.4096   -2.7342   -0.1369 C.2       1 <0>         0.6973
     10 O1          3.4546   -2.1129   -0.1441 O.2       1 <0>        -0.4986
     11 N2          2.4235   -4.0775   -0.2453 N.am      1 <0>        -0.6205
     12 C9          3.6270   -4.7495   -0.3648 C.2       1 <0>         0.3464
     13 N3          4.8535   -4.2524   -0.3978 N.2       1 <0>        -0.5157
     14 C10         5.9027   -5.0244   -0.5124 C.2       1 <0>         0.1903
     15 C11         5.6915   -6.3922   -0.6102 C.2       1 <0>        -0.2959
     16 S1          3.9079   -6.4563   -0.5170 S.3       1 <0>         0.0980
     17 C12         6.6599   -7.4799   -0.7511 C.2       1 <0>         0.6198
     18 O2          7.8509   -7.2323   -0.7974 O.2       1 <0>        -0.5182
     19 N4          6.2333   -8.7560   -0.8297 N.am      1 <0>        -0.7213
     20 C13         7.2030   -9.8451   -0.9708 C.3       1 <0>         0.1858
     21 H1          8.1053   -9.6031   -0.4093 H         1 <0>         0.1017
     22 C14         7.5551  -10.0261   -2.4487 C.3       1 <0>        -0.1594
     23 C15         6.6060  -11.1215   -0.4367 C.ar      1 <0>        -0.0942
     24 C16         5.2768  -11.4161   -0.6762 C.ar      1 <0>        -0.1162
     25 C17         4.7303  -12.5890   -0.1900 C.ar      1 <0>        -0.1149
     26 C18         5.5106  -13.4631    0.5436 C.ar      1 <0>        -0.1176
     27 C19         6.8385  -13.1660    0.7876 C.ar      1 <0>        -0.1143
     28 C20         7.3861  -11.9951    0.2977 C.ar      1 <0>        -0.1059
     29 C21         7.2944   -4.4472   -0.5435 C.3       1 <0>        -0.0932
     30 H2          0.4904    3.9455   -0.8178 H         1 <0>         0.0710
     31 H3          0.7682    3.9498    0.9403 H         1 <0>         0.0667
     32 H4          2.1517    3.9731   -0.1793 H         1 <0>         0.0671
     33 H5          2.8310    1.9658   -1.3574 H         1 <0>         0.1271
     34 H6          2.8736   -0.4950   -1.3644 H         1 <0>         0.1359
     35 H7         -0.4506   -0.5509    1.3248 H         1 <0>         0.1266
     36 H8         -0.4870    1.9099    1.3225 H         1 <0>         0.1279
     37 H9          0.4095   -2.5784    0.0629 H         1 <0>         0.4097
     38 H10         1.5897   -4.5732   -0.2396 H         1 <0>         0.4271
     39 H11         5.2843   -8.9533   -0.7929 H         1 <0>         0.3974
     40 H12         6.6528  -10.2680   -3.0102 H         1 <0>         0.0594
     41 H13         7.9869   -9.1028   -2.8350 H         1 <0>         0.0681
     42 H14         8.2766  -10.8364   -2.5537 H         1 <0>         0.0707
     43 H15         4.6662  -10.7314   -1.2461 H         1 <0>         0.1185
     44 H16         3.6930  -12.8213   -0.3809 H         1 <0>         0.1244
     45 H17         5.0830  -14.3782    0.9258 H         1 <0>         0.1239
     46 H18         7.4481  -13.8488    1.3607 H         1 <0>         0.1256
     47 H19         8.4234  -11.7630    0.4883 H         1 <0>         0.1262
     48 H20         7.5731   -4.2261   -1.5738 H         1 <0>         0.0846
     49 H21         7.3206   -3.5300    0.0448 H         1 <0>         0.0787
     50 H22         7.9961   -5.1681   -0.1240 H         1 <0>         0.0984
@<TRIPOS>BOND
     1    1    2 1
     2    1   30 1
     3    1   31 1
     4    1   32 1
     5    2    7 ar
     6    2    3 ar
     7    3    4 ar
     8    3   33 1
     9    4    5 ar
    10    4   34 1
    11    5    6 ar
    12    5    8 1
    13    6    7 ar
    14    6   35 1
    15    7   36 1
    16    8    9 am
    17    8   37 1
    18    9   10 2
    19    9   11 am
    20   11   12 1
    21   11   38 1
    22   12   16 1
    23   12   13 2
    24   13   14 1
    25   14   15 2
    26   14   29 1
    27   15   16 1
    28   15   17 1
    29   17   18 2
    30   17   19 am
    31   19   20 1
    32   19   39 1
    33   20   21 1
    34   20   22 1
    35   20   23 1
    36   22   40 1
    37   22   41 1
    38   22   42 1
    39   23   28 ar
    40   23   24 ar
    41   24   25 ar
    42   24   43 1
    43   25   26 ar
    44   25   44 1
    45   26   27 ar
    46   26   45 1
    47   27   28 ar
    48   27   46 1
    49   28   47 1
    50   29   48 1
    51   29   49 1
    52   29   50 1
@<TRIPOS>MOLECULE
ZINC16925716
   67    70     0     0     0
SMALL
USER_CHARGES
[(3S,8S,9R,10S,13S,14S,17S)-10,13-dimethyl-17-(C-methyl-N-ureido-carbonimidoyl)-2,3,4,7,8,9,11,12,14,15,16,17-dodecahydro-1H-cyclopenta[a]phenanthren-3-yl] acetate
@<TRIPOS>ATOM
      1 C1          0.4919    3.0830    3.6237 C.3       1 <0>        -0.1207
      2 C2          0.6992    2.0564    2.5401 C.2       1 <0>         0.1318
      3 N1          1.7230    2.1309    1.7753 N.2       1 <0>        -0.2676
      4 N2          1.8380    1.2735    0.6733 N.am      1 <0>        -0.5904
      5 C3          2.8570    1.4258   -0.1956 C.2       1 <0>         0.7332
      6 O1          2.9568    0.6817   -1.1521 O.2       1 <0>        -0.5894
      7 N3          3.7653    2.4030   -0.0044 N.am      1 <0>        -0.8506
      8 C4         -0.2975    0.9434    2.3571 C.3       1 <0>        -0.0898
      9 H1          0.1319    0.1295    1.7794 H         1 <0>         0.0776
     10 C5         -0.7997    0.4352    3.7320 C.3       1 <0>        -0.1127
     11 C6         -2.3518    0.4873    3.6800 C.3       1 <0>        -0.1169
     12 C7         -2.6376    0.4959    2.1727 C.3       1 <0>        -0.0733
     13 H2         -2.4538   -0.5104    1.7760 H         1 <0>         0.0796
     14 C8         -1.5561    1.4761    1.6574 C.3       1 <0>        -0.0465
     15 C9         -1.5321    1.4494    0.1499 C.3       1 <0>        -0.1020
     16 C10        -2.9154    1.6806   -0.4469 C.3       1 <0>        -0.1011
     17 C11        -4.0697    0.9400    0.2112 C.3       1 <0>        -0.0593
     18 H3         -4.9897    1.5238   -0.0559 H         1 <0>         0.0595
     19 C12        -3.9893    0.9902    1.7345 C.3       1 <0>        -0.0613
     20 H4         -4.1178    2.0431    2.0437 H         1 <0>         0.0714
     21 C13        -5.1306    0.2247    2.3889 C.3       1 <0>        -0.0813
     22 C14        -5.2818   -1.1383    1.7904 C.2       1 <0>        -0.1505
     23 C15        -4.9338   -1.4151    0.5727 C.2       1 <0>        -0.0981
     24 C16        -4.2931   -0.4373   -0.3695 C.3       1 <0>        -0.0044
     25 C17        -5.1975   -0.3259   -1.6091 C.3       1 <0>        -0.1037
     26 C18        -5.4782   -1.6998   -2.2067 C.3       1 <0>        -0.1151
     27 C19        -6.1406   -2.6303   -1.1944 C.3       1 <0>         0.0953
     28 H5         -6.3083   -3.6063   -1.6548 H         1 <0>         0.0841
     29 C20        -5.2402   -2.8035    0.0334 C.3       1 <0>        -0.1023
     30 O2         -7.4169   -2.0738   -0.7810 O.3       1 <0>        -0.3443
     31 C21        -8.3760   -2.9444   -0.4291 C.2       1 <0>         0.4579
     32 O3         -8.1568   -4.1320   -0.4653 O.2       1 <0>        -0.5170
     33 C22        -9.7264   -2.4405    0.0110 C.3       1 <0>        -0.1480
     34 C23        -2.9706   -1.0482   -0.8287 C.3       1 <0>        -0.1488
     35 C24        -1.7966    2.9043    2.1488 C.3       1 <0>        -0.1524
     36 H6          0.8808    2.6993    4.5669 H         1 <0>         0.0802
     37 H7          1.0178    4.0006    3.3602 H         1 <0>         0.0785
     38 H8         -0.5729    3.2915    3.7277 H         1 <0>         0.1048
     39 H9          1.1843    0.5702    0.5356 H         1 <0>         0.3994
     40 H10         3.6857    2.9966    0.7586 H         1 <0>         0.4079
     41 H11         4.4987    2.5126   -0.6297 H         1 <0>         0.4138
     42 H12        -0.4285    1.0770    4.5297 H         1 <0>         0.0760
     43 H13        -0.4680   -0.5914    3.8931 H         1 <0>         0.0671
     44 H14        -2.7366    1.3779    4.1666 H         1 <0>         0.0721
     45 H15        -2.7772   -0.4087    4.1392 H         1 <0>         0.0662
     46 H16        -1.0824    0.5219   -0.2021 H         1 <0>         0.0624
     47 H17        -0.8643    2.2635   -0.1946 H         1 <0>         0.0532
     48 H18        -3.1369    2.7638   -0.3936 H         1 <0>         0.0544
     49 H19        -2.8938    1.4556   -1.5212 H         1 <0>         0.0649
     50 H20        -4.9379    0.1321    3.4602 H         1 <0>         0.0710
     51 H21        -6.0614    0.7829    2.2514 H         1 <0>         0.0706
     52 H22        -5.6978   -1.9284    2.4015 H         1 <0>         0.0993
     53 H23        -6.1365    0.1489   -1.3188 H         1 <0>         0.0691
     54 H24        -4.6996    0.3014   -2.3516 H         1 <0>         0.0658
     55 H25        -6.1619   -1.5758   -3.0597 H         1 <0>         0.0688
     56 H26        -4.5648   -2.1543   -2.5853 H         1 <0>         0.0867
     57 H27        -4.3264   -3.3210   -0.2412 H         1 <0>         0.0893
     58 H28        -5.7709   -3.3796    0.7940 H         1 <0>         0.0719
     59 H29        -9.7357   -1.3510   -0.0207 H         1 <0>         0.0903
     60 H30       -10.4948   -2.8299   -0.6568 H         1 <0>         0.1041
     61 H31        -9.9254   -2.7761    1.0287 H         1 <0>         0.1039
     62 H32        -2.2931   -1.1291    0.0214 H         1 <0>         0.0579
     63 H33        -3.1529   -2.0395   -1.2436 H         1 <0>         0.0548
     64 H34        -2.5219   -0.4119   -1.5916 H         1 <0>         0.0607
     65 H35        -2.6885    3.3080    1.6697 H         1 <0>         0.0593
     66 H36        -1.9362    2.8979    3.2298 H         1 <0>         0.0702
     67 H37        -0.9365    3.5248    1.8972 H         1 <0>         0.0627
@<TRIPOS>BOND
     1    1    2 1
     2    1   36 1
     3    1   37 1
     4    1   38 1
     5    2    3 2
     6    2    8 1
     7    3    4 1
     8    4    5 am
     9    4   39 1
    10    5    6 2
    11    5    7 am
    12    7   40 1
    13    7   41 1
    14    8    9 1
    15    8   14 1
    16    8   10 1
    17   10   11 1
    18   10   42 1
    19   10   43 1
    20   11   12 1
    21   11   44 1
    22   11   45 1
    23   12   13 1
    24   12   19 1
    25   12   14 1
    26   14   15 1
    27   14   35 1
    28   15   16 1
    29   15   46 1
    30   15   47 1
    31   16   17 1
    32   16   48 1
    33   16   49 1
    34   17   18 1
    35   17   24 1
    36   17   19 1
    37   19   20 1
    38   19   21 1
    39   21   22 1
    40   21   50 1
    41   21   51 1
    42   22   23 2
    43   22   52 1
    44   23   29 1
    45   23   24 1
    46   24   25 1
    47   24   34 1
    48   25   26 1
    49   25   53 1
    50   25   54 1
    51   26   27 1
    52   26   55 1
    53   26   56 1
    54   27   28 1
    55   27   29 1
    56   27   30 1
    57   29   57 1
    58   29   58 1
    59   30   31 1
    60   31   32 2
    61   31   33 1
    62   33   59 1
    63   33   60 1
    64   33   61 1
    65   34   62 1
    66   34   63 1
    67   34   64 1
    68   35   65 1
    69   35   66 1
    70   35   67 1
@<TRIPOS>MOLECULE
ZINC06664910
   56    59     0     0     0
SMALL
USER_CHARGES

@<TRIPOS>ATOM
      1 C1          0.9253    1.1593   -0.6273 C.3       1 <0>         0.0308
      2 O1          0.7006   -0.2460   -0.4980 O.3       1 <0>        -0.3874
      3 C2         -0.6699   -0.5997   -0.3011 C.3       1 <0>         0.0484
      4 C3         -0.7914   -2.1198   -0.1764 C.3       1 <0>         0.1196
      5 N1         -0.0978   -2.5675    1.0338 N.pl3     1 <0>        -0.7192
      6 C4         -0.0717   -3.9147    1.3595 C.ar      1 <0>         0.2426
      7 C5         -0.6657   -4.8495    0.5120 C.ar      1 <0>        -0.1404
      8 C6         -0.6457   -6.1940    0.8274 C.ar      1 <0>         0.1739
      9 C7         -0.0236   -6.6392    2.0107 C.ar      1 <0>         0.2210
     10 C8          0.5747   -5.7155    2.8664 C.ar      1 <0>        -0.1700
     11 C9          0.5561   -4.3393    2.5370 C.ar      1 <0>        -0.1891
     12 C10         1.1918   -3.3679    3.4357 C.2       1 <0>         0.4445
     13 O2          0.9719   -2.1777    3.3099 O.2       1 <0>        -0.4590
     14 C11         2.1024   -3.8523    4.4960 C.ar      1 <0>        -0.1134
     15 C12         2.9359   -2.9671    5.1723 C.ar      1 <0>        -0.0727
     16 C13         3.7809   -3.4377    6.1611 C.ar      1 <0>        -0.1021
     17 C14         3.8038   -4.7833    6.4830 C.ar      1 <0>        -0.1023
     18 C15         2.9819   -5.6770    5.8206 C.ar      1 <0>        -0.0731
     19 C16         2.1258   -5.2205    4.8231 C.ar      1 <0>        -0.1152
     20 C17         1.2309   -6.1592    4.1075 C.2       1 <0>         0.4440
     21 O3          1.0505   -7.2850    4.5310 O.2       1 <0>        -0.4534
     22 N2         -0.0071   -7.9897    2.3228 N.pl3     1 <0>        -0.8492
     23 N3         -1.2432   -7.1134   -0.0275 N.pl3     1 <0>        -0.6635
     24 C18        -0.4844   -7.6061   -1.1551 C.3       1 <0>         0.1489
     25 C19        -0.7063   -6.6791   -2.3756 C.3       1 <0>        -0.1430
     26 C20        -2.0688   -6.8472   -2.9038 C.3       1 <0>        -0.1144
     27 C21        -3.1740   -6.4568   -1.9271 C.3       1 <0>        -0.1108
     28 C22        -3.4802   -7.6266   -1.0246 C.3       1 <0>        -0.1330
     29 C23        -2.6240   -7.5506    0.2571 C.3       1 <0>         0.1423
     30 H1          1.9893    1.3451   -0.7738 H         1 <0>         0.0877
     31 H2          0.3688    1.5389   -1.4842 H         1 <0>         0.0424
     32 H3          0.5892    1.6658    0.2775 H         1 <0>         0.0431
     33 H4         -1.0391   -0.1298    0.6105 H         1 <0>         0.0587
     34 H5         -1.2594   -0.2566   -1.1512 H         1 <0>         0.0668
     35 H6         -1.8439   -2.3964   -0.1154 H         1 <0>         0.0774
     36 H7         -0.3414   -2.5930   -1.0492 H         1 <0>         0.0704
     37 H8          0.3432   -1.9213    1.6072 H         1 <0>         0.4186
     38 H9         -1.1453   -4.5195   -0.3977 H         1 <0>         0.1361
     39 H10         2.9234   -1.9157    4.9258 H         1 <0>         0.1409
     40 H11         4.4278   -2.7500    6.6855 H         1 <0>         0.1358
     41 H12         4.4685   -5.1383    7.2567 H         1 <0>         0.1358
     42 H13         3.0048   -6.7260    6.0765 H         1 <0>         0.1407
     43 H14         0.6251   -8.3290    2.9757 H         1 <0>         0.4077
     44 H15        -0.6277   -8.5955    1.8884 H         1 <0>         0.3978
     45 H16         0.5752   -7.6229   -0.9001 H         1 <0>         0.0626
     46 H17        -0.8141   -8.6155   -1.4013 H         1 <0>         0.0667
     47 H18        -0.5625   -5.6422   -2.0720 H         1 <0>         0.0622
     48 H19         0.0154   -6.9279   -3.1536 H         1 <0>         0.0652
     49 H20        -2.1695   -6.2379   -3.8019 H         1 <0>         0.0527
     50 H21        -2.2058   -7.8923   -3.1817 H         1 <0>         0.0560
     51 H22        -2.8450   -5.6096   -1.3254 H         1 <0>         0.0652
     52 H23        -4.0704   -6.1821   -2.4831 H         1 <0>         0.0578
     53 H24        -4.5363   -7.6087   -0.7555 H         1 <0>         0.0700
     54 H25        -3.2585   -8.5558   -1.5495 H         1 <0>         0.0642
     55 H26        -2.5943   -8.5340    0.7261 H         1 <0>         0.0463
     56 H27        -3.0835   -6.8443    0.9486 H         1 <0>         0.0663
@<TRIPOS>BOND
     1    1    2 1
     2    1   30 1
     3    1   31 1
     4    1   32 1
     5    2    3 1
     6    3    4 1
     7    3   33 1
     8    3   34 1
     9    4    5 1
    10    4   35 1
    11    4   36 1
    12    5    6 1
    13    5   37 1
    14    6   11 ar
    15    6    7 ar
    16    7    8 ar
    17    7   38 1
    18    8    9 ar
    19    8   23 1
    20    9   10 ar
    21    9   22 1
    22   10   20 1
    23   10   11 ar
    24   11   12 1
    25   12   13 2
    26   12   14 1
    27   14   19 ar
    28   14   15 ar
    29   15   16 ar
    30   15   39 1
    31   16   17 ar
    32   16   40 1
    33   17   18 ar
    34   17   41 1
    35   18   19 ar
    36   18   42 1
    37   19   20 1
    38   20   21 2
    39   22   43 1
    40   22   44 1
    41   23   29 1
    42   23   24 1
    43   24   25 1
    44   24   45 1
    45   24   46 1
    46   25   26 1
    47   25   47 1
    48   25   48 1
    49   26   27 1
    50   26   49 1
    51   26   50 1
    52   27   28 1
    53   27   51 1
    54   27   52 1
    55   28   29 1
    56   28   53 1
    57   28   54 1
    58   29   55 1
    59   29   56 1
@<TRIPOS>MOLECULE
ZINC25063926
   42    45     0     0     0
SMALL
USER_CHARGES

@<TRIPOS>ATOM
      1 C1         -0.9552    1.5027   -0.1702 C.2       1 <0>        -0.0608
      2 C2          0.3056    2.0985   -0.2723 C.2       1 <0>        -0.1865
      3 C3          1.2304    1.1089   -0.3241 C.2       1 <0>         0.0800
      4 N1          0.5966   -0.0876   -0.2583 N.pl3     1 <0>        -0.5184
      5 H1          1.0262   -0.9571   -0.2753 H         1 <0>         0.4315
      6 C4         -0.7586    0.1369   -0.1626 C.2       1 <0>        -0.0322
      7 C5         -1.8015   -0.8876   -0.0689 C.2       1 <0>         0.5437
      8 O1         -2.9700   -0.5602    0.0122 O.2       1 <0>        -0.4851
      9 O2         -1.4658   -2.1941   -0.0725 O.3       1 <0>        -0.3494
     10 C6         -2.5339   -3.1386    0.0217 C.3       1 <0>         0.1472
     11 C7         -1.9715   -4.5366    0.0028 C.ar      1 <0>         0.3730
     12 N2         -1.8103   -5.1523   -1.1549 N.ar      1 <0>        -0.5639
     13 C8         -1.3217   -6.3792   -1.2387 C.ar      1 <0>         0.4877
     14 C9         -0.9566   -7.0608   -0.0444 C.ar      1 <0>        -0.2278
     15 C10        -0.4002   -8.4106    0.1033 C.2       1 <0>        -0.0807
     16 C11        -0.1435   -8.8254    1.3595 C.2       1 <0>        -0.1374
     17 S1         -0.6068   -7.4669    2.4033 S.3       1 <0>         0.1214
     18 C12        -1.1563   -6.3411    1.1488 C.ar      1 <0>         0.1392
     19 N3         -1.6460   -5.1161    1.1421 N.ar      1 <0>        -0.4923
     20 C13         0.4029  -10.1494    1.7960 C.3       1 <0>        -0.0448
     21 C14         1.6454  -10.4852    0.9609 C.3       1 <0>        -0.1153
     22 C15         1.1977  -11.2480   -0.2819 C.3       1 <0>        -0.1231
     23 C16        -0.1781  -10.7569   -0.7283 C.3       1 <0>        -0.1261
     24 C17        -0.1206   -9.2845   -1.1163 C.3       1 <0>        -0.0719
     25 N4         -1.1684   -6.9905   -2.4700 N.pl3     1 <0>        -0.8377
     26 Br1         0.6579    3.9555   -0.3290 Br        1 <0>        -0.0157
     27 H2         -1.9037    2.0149   -0.1050 H         1 <0>         0.1636
     28 H3          2.2980    1.2506   -0.4046 H         1 <0>         0.1873
     29 H4         -3.0792   -2.9789    0.9520 H         1 <0>         0.1046
     30 H5         -3.2103   -3.0077   -0.8229 H         1 <0>         0.1041
     31 H6          0.6752  -10.1009    2.8503 H         1 <0>         0.0808
     32 H7         -0.3531  -10.9209    1.6500 H         1 <0>         0.0966
     33 H8          2.1488   -9.5647    0.6653 H         1 <0>         0.0680
     34 H9          2.3251  -11.1041    1.5467 H         1 <0>         0.0752
     35 H10         1.9175  -11.0865   -1.0844 H         1 <0>         0.0658
     36 H11         1.1454  -12.3126   -0.0537 H         1 <0>         0.0680
     37 H12        -0.5078  -11.3422   -1.5867 H         1 <0>         0.0700
     38 H13        -0.8884  -10.8860    0.0883 H         1 <0>         0.0753
     39 H14        -0.8677   -9.0835   -1.8841 H         1 <0>         0.0798
     40 H15         0.8697   -9.0523   -1.5081 H         1 <0>         0.0809
     41 H16        -0.4932   -7.6764   -2.5902 H         1 <0>         0.4152
     42 H17        -1.7363   -6.7333   -3.2132 H         1 <0>         0.4104
@<TRIPOS>BOND
     1    1    6 2
     2    1    2 1
     3    1   27 1
     4    2    3 2
     5    2   26 1
     6    3    4 1
     7    3   28 1
     8    4    5 1
     9    4    6 1
    10    6    7 1
    11    7    8 2
    12    7    9 1
    13    9   10 1
    14   10   11 1
    15   10   29 1
    16   10   30 1
    17   11   19 ar
    18   11   12 ar
    19   12   13 ar
    20   13   14 ar
    21   13   25 1
    22   14   18 ar
    23   14   15 1
    24   15   24 1
    25   15   16 2
    26   16   17 1
    27   16   20 1
    28   17   18 1
    29   18   19 ar
    30   20   21 1
    31   20   31 1
    32   20   32 1
    33   21   22 1
    34   21   33 1
    35   21   34 1
    36   22   23 1
    37   22   35 1
    38   22   36 1
    39   23   24 1
    40   23   37 1
    41   23   38 1
    42   24   39 1
    43   24   40 1
    44   25   41 1
    45   25   42 1
@<TRIPOS>MOLECULE
ZINC27533069
   36    37     0     0     0
SMALL
USER_CHARGES
(2R)-2-[[2-[(5E)-5-benzylidene-4-oxo-2-thioxo-thiazolidin-3-yl]acetyl]amino]propanoic acid
@<TRIPOS>ATOM
      1 C1         -2.5568    7.5628   -3.4251 C.3       1 <0>        -0.1358
      2 C2         -3.9036    7.1541   -2.8251 C.3       1 <0>         0.1007
      3 H1         -4.3572    6.3309   -3.3965 H         1 <0>         0.0874
      4 C3         -4.8311    8.3419   -2.8171 C.2       1 <0>         0.4657
      5 O1         -5.2791    8.7514   -1.7724 O.co2     1 <0>        -0.6333
      6 O2         -5.1595    8.9448   -3.9705 O.co2     1 <0>        -0.7539
      7 N1         -3.7036    6.6814   -1.4530 N.am      1 <0>        -0.6998
      8 C4         -3.3593    5.3983   -1.2257 C.2       1 <0>         0.5053
      9 O3         -3.2149    4.6351   -2.1572 O.2       1 <0>        -0.5522
     10 C5         -3.1536    4.9120    0.1857 C.3       1 <0>         0.0592
     11 N2         -2.7883    3.4934    0.1651 N.am      1 <0>        -0.5018
     12 C6         -1.5116    3.1561    0.0928 C.2       1 <0>         0.5434
     13 O4         -0.6304    3.9938    0.0431 O.2       1 <0>        -0.4449
     14 C7         -1.2100    1.7087    0.0758 C.2       1 <0>        -0.2351
     15 C8         -0.0126    1.0758    0.0080 C.2       1 <0>         0.0835
     16 C9          1.2140    1.8479   -0.2378 C.ar      1 <0>        -0.1023
     17 C10         1.2061    2.9095   -1.1495 C.ar      1 <0>        -0.0414
     18 C11         2.3591    3.6325   -1.3696 C.ar      1 <0>        -0.1260
     19 C12         3.5253    3.3034   -0.7006 C.ar      1 <0>        -0.0933
     20 C13         3.5431    2.2509    0.1982 C.ar      1 <0>        -0.1353
     21 C14         2.3971    1.5217    0.4344 C.ar      1 <0>        -0.0830
     22 S1         -2.8585    1.0225    0.1614 S.3       1 <0>         0.0609
     23 C15        -3.7616    2.5617    0.2200 C.2       1 <0>         0.2886
     24 S2         -5.4545    2.7977    0.3162 S.2       1 <0>        -0.3194
     25 H2         -1.8798    6.6958   -3.4309 H         1 <0>         0.0452
     26 H3         -2.1154    8.3687   -2.8203 H         1 <0>         0.0497
     27 H4         -2.7070    7.9177   -4.4554 H         1 <0>         0.0727
     28 H5         -3.8344    7.3737   -0.6082 H         1 <0>         0.4279
     29 H6         -2.3474    5.4914    0.6593 H         1 <0>         0.1330
     30 H7         -4.0839    5.0428    0.7579 H         1 <0>         0.1415
     31 H8          0.0409   -0.0153    0.1369 H         1 <0>         0.1630
     32 H9          0.2982    3.1644   -1.6759 H         1 <0>         0.1248
     33 H10         2.3536    4.4552   -2.0694 H         1 <0>         0.1268
     34 H11         4.4264    3.8707   -0.8811 H         1 <0>         0.1244
     35 H12         4.4570    2.0004    0.7162 H         1 <0>         0.1261
     36 H13         2.4126    0.7008    1.1360 H         1 <0>         0.1279
@<TRIPOS>BOND
     1    1    2 1
     2    1   25 1
     3    1   26 1
     4    1   27 1
     5    2    3 1
     6    2    4 1
     7    2    7 1
     8    4    5 2
     9    4    6 1
    10    7    8 am
    11    7   28 1
    12    8    9 2
    13    8   10 1
    14   10   11 1
    15   10   29 1
    16   10   30 1
    17   11   23 1
    18   11   12 am
    19   12   13 2
    20   12   14 1
    21   14   15 2
    22   14   22 1
    23   15   16 1
    24   15   31 1
    25   16   21 ar
    26   16   17 ar
    27   17   18 ar
    28   17   32 1
    29   18   19 ar
    30   18   33 1
    31   19   20 ar
    32   19   34 1
    33   20   21 ar
    34   20   35 1
    35   21   36 1
    36   22   23 1
    37   23   24 2
@<TRIPOS>MOLECULE
ZINC37419457
   42    43     0     0     0
SMALL
USER_CHARGES

@<TRIPOS>ATOM
      1 C1         -0.0225    1.8097    0.0120 C.3       1 <0>        -0.6772
      2 S1          0.0021   -0.0041    0.0020 S.o2      1 <0>         2.6100
      3 O1          0.8352   -0.4880    1.0465 O.2       1 <0>        -0.9512
      4 O2         -1.3147   -0.5105   -0.1678 O.2       1 <0>        -0.9595
      5 N1          0.7947   -0.4113   -1.3938 N.pl3     1 <0>        -0.9968
      6 C2          0.0529   -0.6009   -2.6478 C.3       1 <0>         0.1188
      7 C3          0.6771    0.2870   -3.7290 C.3       1 <0>        -0.1329
      8 C4          2.1735   -0.0168   -3.8317 C.3       1 <0>        -0.1073
      9 C5          2.8525    0.2980   -2.4969 C.3       1 <0>        -0.1198
     10 H1          2.6909    1.3460   -2.2447 H         1 <0>         0.0880
     11 C6          2.2538   -0.5838   -1.4030 C.3       1 <0>         0.1408
     12 C7          4.3312    0.0300   -2.6092 C.2       1 <0>         0.5228
     13 O3          4.8561   -0.7880   -1.8837 O.2       1 <0>        -0.5137
     14 N2          5.0704    0.6992   -3.5159 N.am      1 <0>        -0.7006
     15 C8          6.5079    0.4387   -3.6251 C.3       1 <0>         0.1032
     16 C9          7.2376    0.8732   -2.3297 C.3       1 <0>        -0.1114
     17 C10         7.3901    2.4028   -2.5199 C.3       1 <0>        -0.1215
     18 C11         7.6951    2.5685   -4.0230 C.3       1 <0>        -0.1202
     19 C12         7.1343    1.3197   -4.7257 C.3       1 <0>        -0.1111
     20 C13         6.7581   -1.0197   -3.9108 C.2       1 <0>         0.5046
     21 O4          5.8186   -1.7875   -4.0297 O.co2     1 <0>        -0.6742
     22 O5          7.9001   -1.4317   -4.0231 O.co2     1 <0>        -0.7009
     23 H2          1.0001    2.1870    0.0043 H         1 <0>         0.1274
     24 H3         -0.5497    2.1708   -0.8711 H         1 <0>         0.1255
     25 H4         -0.5327    2.1613    0.9088 H         1 <0>         0.1250
     26 H5          0.1128   -1.6455   -2.9533 H         1 <0>         0.0773
     27 H6         -0.9900   -0.3200   -2.5015 H         1 <0>         0.0886
     28 H7          0.1981    0.0847   -4.6870 H         1 <0>         0.0782
     29 H8          0.5359    1.3351   -3.4652 H         1 <0>         0.0644
     30 H9          2.3145   -1.0708   -4.0712 H         1 <0>         0.0787
     31 H10         2.6153    0.5961   -4.6174 H         1 <0>         0.0688
     32 H11         2.6624   -0.2917   -0.4357 H         1 <0>         0.0957
     33 H12         2.4971   -1.6270   -1.6048 H         1 <0>         0.0902
     34 H13         4.6507    1.3535   -4.0961 H         1 <0>         0.3821
     35 H14         6.6307    0.6517   -1.4517 H         1 <0>         0.0672
     36 H15         8.2137    0.3937   -2.2568 H         1 <0>         0.0775
     37 H16         6.4630    2.9138   -2.2602 H         1 <0>         0.0552
     38 H17         8.2168    2.7814   -1.9189 H         1 <0>         0.0569
     39 H18         7.2063    3.4640   -4.4067 H         1 <0>         0.0540
     40 H19         8.7717    2.6337   -4.1806 H         1 <0>         0.0604
     41 H20         7.9386    0.7789   -5.2242 H         1 <0>         0.0817
     42 H21         6.3732    1.6092   -5.4504 H         1 <0>         0.0556
@<TRIPOS>BOND
     1    1    2 1
     2    1   23 1
     3    1   24 1
     4    1   25 1
     5    2    3 2
     6    2    4 2
     7    2    5 1
     8    5   11 1
     9    5    6 1
    10    6    7 1
    11    6   26 1
    12    6   27 1
    13    7    8 1
    14    7   28 1
    15    7   29 1
    16    8    9 1
    17    8   30 1
    18    8   31 1
    19    9   10 1
    20    9   11 1
    21    9   12 1
    22   11   32 1
    23   11   33 1
    24   12   13 2
    25   12   14 am
    26   14   15 1
    27   14   34 1
    28   15   19 1
    29   15   16 1
    30   15   20 1
    31   16   17 1
    32   16   35 1
    33   16   36 1
    34   17   18 1
    35   17   37 1
    36   17   38 1
    37   18   19 1
    38   18   39 1
    39   18   40 1
    40   19   41 1
    41   19   42 1
    42   20   21 2
    43   20   22 1
@<TRIPOS>MOLECULE
ZINC37692616
   33    34     0     0     0
SMALL
USER_CHARGES

@<TRIPOS>ATOM
      1 C1          0.3463    1.4845   -0.0365 C.3       1 <0>        -0.0979
      2 C2          0.1754   -0.0127   -0.0202 C.ar      1 <0>         0.1952
      3 C3         -0.0990   -0.7094   -1.2026 C.ar      1 <0>        -0.1867
      4 C4         -0.2486   -2.1123   -1.1255 C.ar      1 <0>         0.1566
      5 N1         -0.1226   -2.7038    0.0600 N.ar      1 <0>        -0.5307
      6 C5          0.1361   -1.9998    1.1414 C.ar      1 <0>         0.3038
      7 N2          0.2877   -0.6885    1.1099 N.ar      1 <0>        -0.5253
      8 C6          0.2690   -2.7157    2.4608 C.3       1 <0>        -0.0768
      9 S1         -0.5955   -3.0596   -2.5701 S.3       1 <0>         0.0235
     10 C7         -0.6930   -4.7661   -1.9629 C.3       1 <0>        -0.1010
     11 H1         -1.4202   -4.8043   -1.1518 H         1 <0>         0.1366
     12 C8          0.6899   -5.1708   -1.4049 C.3       1 <0>        -0.5451
     13 S2          0.7785   -6.9432   -1.9128 S.o2      1 <0>         2.3651
     14 O1          0.0636   -7.7375   -0.9762 O.2       1 <0>        -0.9222
     15 O2          2.1221   -7.2732   -2.2370 O.2       1 <0>        -0.9367
     16 C9         -0.2076   -6.7935   -3.4661 C.3       1 <0>        -0.6054
     17 C10        -1.1814   -5.6572   -3.0951 C.3       1 <0>         0.1273
     18 H2         -1.3461   -5.0392   -3.9777 H         1 <0>         0.0927
     19 O3         -2.4296   -6.2381   -2.7122 O.3       1 <0>        -0.5489
     20 C11        -0.2281   -0.0032   -2.4854 C.2       1 <0>         0.5363
     21 O4          0.7663    0.2253   -3.1608 O.co2     1 <0>        -0.6688
     22 O5         -1.3300    0.3563   -2.8777 O.co2     1 <0>        -0.6681
     23 H3          1.3741    1.7299   -0.3039 H         1 <0>         0.0842
     24 H4         -0.3335    1.9199   -0.7688 H         1 <0>         0.0859
     25 H5          0.1221    1.8866    0.9515 H         1 <0>         0.0760
     26 H6          1.3087   -3.0052    2.6140 H         1 <0>         0.0794
     27 H7         -0.0462   -2.0533    3.2670 H         1 <0>         0.0818
     28 H8         -0.3591   -3.6065    2.4558 H         1 <0>         0.0797
     29 H9          1.4857   -4.5895   -1.8706 H         1 <0>         0.1469
     30 H10         0.7186   -5.0723   -0.3197 H         1 <0>         0.1559
     31 H11         0.4253   -6.5067   -4.3059 H         1 <0>         0.1503
     32 H12        -0.7444   -7.7176   -3.6800 H         1 <0>         0.1488
     33 H13        -2.8125   -6.8230   -3.3803 H         1 <0>         0.3873
@<TRIPOS>BOND
     1    1    2 1
     2    1   23 1
     3    1   24 1
     4    1   25 1
     5    2    7 ar
     6    2    3 ar
     7    3    4 ar
     8    3   20 1
     9    4    5 ar
    10    4    9 1
    11    5    6 ar
    12    6    7 ar
    13    6    8 1
    14    8   26 1
    15    8   27 1
    16    8   28 1
    17    9   10 1
    18   10   11 1
    19   10   17 1
    20   10   12 1
    21   12   13 1
    22   12   29 1
    23   12   30 1
    24   13   14 2
    25   13   15 2
    26   13   16 1
    27   16   17 1
    28   16   31 1
    29   16   32 1
    30   17   18 1
    31   17   19 1
    32   19   33 1
    33   20   21 2
    34   20   22 1
@<TRIPOS>MOLECULE
ZINC41677176
   27    26     0     0     0
SMALL
USER_CHARGES

@<TRIPOS>ATOM
      1 C1         -0.0187    1.5258    0.0104 C.3       1 <0>        -0.1740
      2 C2          0.0021   -0.0041    0.0020 C.3       1 <0>        -0.0790
      3 C3          0.7421   -0.5109    1.2415 C.3       1 <0>        -0.1531
      4 C4         -1.4333   -0.5336    0.0129 C.3       1 <0>        -0.0676
      5 H1         -1.4190   -1.6203    0.0965 H         1 <0>         0.1178
      6 C5         -2.1247   -0.1373   -1.2662 C.2       1 <0>         0.5114
      7 O1         -2.0143    0.9938   -1.6898 O.2       1 <0>        -0.5130
      8 N1         -2.8657   -1.0397   -1.9393 N.am      1 <0>        -0.7139
      9 C6         -3.5378   -0.6543   -3.1826 C.3       1 <0>         0.1412
     10 C7         -4.3055   -1.8545   -3.7405 C.3       1 <0>        -0.6937
     11 S1         -5.1377   -1.3773   -5.2801 S.o2      1 <0>         2.6433
     12 O2         -5.8610   -2.5301   -5.7941 O.2       1 <0>        -1.0618
     13 O3         -6.0603   -0.2902   -4.9922 O.2       1 <0>        -1.0574
     14 O4         -4.1316   -0.9450   -6.2377 O.3       1 <0>        -1.0581
     15 Br1        -2.4015    0.2288    1.5447 Br        1 <0>        -0.1124
     16 H2          1.0039    1.9031    0.0027 H         1 <0>         0.0524
     17 H3         -0.5459    1.8868   -0.8726 H         1 <0>         0.0964
     18 H4         -0.5289    1.8773    0.9072 H         1 <0>         0.0629
     19 H5          0.5123   -0.3556   -0.8948 H         1 <0>         0.0878
     20 H6          1.7647   -0.1336    1.2338 H         1 <0>         0.0636
     21 H7          0.2319   -0.1594    2.1383 H         1 <0>         0.0657
     22 H8          0.7568   -1.6008    1.2356 H         1 <0>         0.0556
     23 H9         -2.9540   -1.9443   -1.6004 H         1 <0>         0.3998
     24 H10        -4.2333    0.1606   -2.9822 H         1 <0>         0.0833
     25 H11        -2.7954   -0.3276   -3.9108 H         1 <0>         0.0829
     26 H12        -3.6099   -2.6694   -3.9409 H         1 <0>         0.1095
     27 H13        -5.0479   -2.1812   -3.0124 H         1 <0>         0.1101
@<TRIPOS>BOND
     1    1    2 1
     2    1   16 1
     3    1   17 1
     4    1   18 1
     5    2    3 1
     6    2    4 1
     7    2   19 1
     8    3   20 1
     9    3   21 1
    10    3   22 1
    11    4    5 1
    12    4    6 1
    13    4   15 1
    14    6    7 2
    15    6    8 am
    16    8    9 1
    17    8   23 1
    18    9   10 1
    19    9   24 1
    20    9   25 1
    21   10   11 1
    22   10   26 1
    23   10   27 1
    24   11   12 2
    25   11   13 2
    26   11   14 1
@<TRIPOS>MOLECULE
ZINC44882415
   38    38     0     0     0
SMALL
USER_CHARGES

@<TRIPOS>ATOM
      1 C1         -0.0187    1.5258    0.0104 C.3       1 <0>        -0.1407
      2 C2          0.0021   -0.0041    0.0020 C.3       1 <0>        -0.1192
      3 C3         -1.4333   -0.5336    0.0129 C.3       1 <0>         0.0867
      4 H1         -1.9701   -0.1109    0.8621 H         1 <0>         0.0962
      5 C4         -1.4136   -2.0361    0.1285 C.2       1 <0>         0.4908
      6 O1         -1.4274   -2.5632    1.2278 O.co2     1 <0>        -0.6935
      7 O2         -1.3838   -2.7245   -0.8773 O.co2     1 <0>        -0.6891
      8 N1         -2.1054   -0.1483   -1.2305 N.am      1 <0>        -0.5924
      9 C5         -1.5729   -0.5955   -2.5200 C.3       1 <0>         0.0963
     10 C6         -3.2136    0.6176   -1.1881 C.2       1 <0>         0.7039
     11 O3         -3.6555    0.9887   -0.1180 O.2       1 <0>        -0.5938
     12 N2         -3.8319    0.9721   -2.3320 N.am      1 <0>        -0.7478
     13 C7         -5.0365    1.8046   -2.2860 C.3       1 <0>         0.2020
     14 C8         -4.7145    3.0900   -1.5251 C.3       1 <0>        -0.1497
     15 C9         -4.2121    4.1856   -2.5063 C.3       1 <0>        -0.5583
     16 S1         -5.3499    3.8719   -3.9266 S.o2      1 <0>         2.3619
     17 O4         -4.6670    4.1466   -5.1421 O.2       1 <0>        -0.9417
     18 O5         -6.6020    4.4922   -3.6682 O.2       1 <0>        -0.9330
     19 C10        -5.5229    2.0496   -3.7277 C.3       1 <0>        -0.5814
     20 C11        -6.1253    1.0471   -1.5233 C.3       1 <0>        -0.1675
     21 H2          1.0039    1.9031    0.0027 H         1 <0>         0.0451
     22 H3         -0.5459    1.8868   -0.8726 H         1 <0>         0.0463
     23 H4         -0.5289    1.8773    0.9072 H         1 <0>         0.0514
     24 H5          0.5123   -0.3556   -0.8948 H         1 <0>         0.0609
     25 H6          0.5293   -0.3651    0.8851 H         1 <0>         0.0710
     26 H7         -2.0230   -1.5516   -2.7870 H         1 <0>         0.0682
     27 H8         -1.8080    0.1433   -3.2861 H         1 <0>         0.0408
     28 H9         -0.4916   -0.7110   -2.4462 H         1 <0>         0.0711
     29 H10        -3.4793    0.6760   -3.1858 H         1 <0>         0.3962
     30 H11        -5.6125    3.4438   -1.0186 H         1 <0>         0.0959
     31 H12        -3.9408    2.8866   -0.7847 H         1 <0>         0.1302
     32 H13        -4.3567    5.1844   -2.0945 H         1 <0>         0.1404
     33 H14        -3.1717    4.0211   -2.7868 H         1 <0>         0.1359
     34 H15        -4.8900    1.5229   -4.4420 H         1 <0>         0.1455
     35 H16        -6.5643    1.7476   -3.8389 H         1 <0>         0.1508
     36 H17        -5.7758    0.8263   -0.5147 H         1 <0>         0.0916
     37 H18        -7.0250    1.6601   -1.4700 H         1 <0>         0.0663
     38 H19        -6.3507    0.1152   -2.0419 H         1 <0>         0.0631
@<TRIPOS>BOND
     1    1    2 1
     2    1   21 1
     3    1   22 1
     4    1   23 1
     5    2    3 1
     6    2   24 1
     7    2   25 1
     8    3    4 1
     9    3    5 1
    10    3    8 1
    11    5    6 2
    12    5    7 1
    13    8    9 1
    14    8   10 am
    15    9   26 1
    16    9   27 1
    17    9   28 1
    18   10   11 2
    19   10   12 am
    20   12   13 1
    21   12   29 1
    22   13   19 1
    23   13   14 1
    24   13   20 1
    25   14   15 1
    26   14   30 1
    27   14   31 1
    28   15   16 1
    29   15   32 1
    30   15   33 1
    31   16   17 2
    32   16   18 2
    33   16   19 1
    34   19   34 1
    35   19   35 1
    36   20   36 1
    37   20   37 1
    38   20   38 1
@<TRIPOS>MOLECULE
ZINC06738153
   36    38     0     0     0
SMALL
USER_CHARGES
N-(3-carbamoyl-4,5,6,7-tetrahydrobenzothiophen-2-yl)-4-chloro-3-methyl-isoxazole-5-carboxamide
@<TRIPOS>ATOM
      1 C1          2.8207    9.3627    0.0230 C.3       1 <0>        -0.0829
      2 C2          2.8678    7.8564    0.0149 C.2       1 <0>         0.0343
      3 C3          1.7612    6.9764    0.0162 C.2       1 <0>        -0.0703
      4 C4          2.3335    5.7314    0.0097 C.2       1 <0>        -0.0784
      5 O1          3.6655    5.9334   -0.0028 O.3       1 <0>         0.1314
      6 N1          3.9346    7.1119    0.0003 N.2       1 <0>        -0.3178
      7 C5          1.6343    4.4353    0.0099 C.2       1 <0>         0.6036
      8 O2          0.4186    4.4001    0.0217 O.2       1 <0>        -0.4556
      9 N2          2.3415    3.2881   -0.0031 N.am      1 <0>        -0.6048
     10 C6          1.6839    2.0692   -0.0029 C.2       1 <0>         0.0627
     11 C7          2.2316    0.7936   -0.0149 C.2       1 <0>        -0.2143
     12 C8          1.3125   -0.3316   -0.0120 C.2       1 <0>        -0.0669
     13 C9          0.0021   -0.0041    0.0020 C.2       1 <0>        -0.2002
     14 S1         -0.0219    1.7661    0.0118 S.3       1 <0>         0.2359
     15 C10        -1.1638   -0.9440    0.0074 C.3       1 <0>        -0.0369
     16 C11        -0.6605   -2.3413   -0.3830 C.3       1 <0>        -0.1159
     17 C12         0.5901   -2.6630    0.4402 C.3       1 <0>        -0.1190
     18 C13         1.7570   -1.7891   -0.0232 C.3       1 <0>        -0.0609
     19 C14         3.6833    0.5896   -0.0306 C.2       1 <0>         0.5820
     20 O3          4.2754    0.5107   -1.0910 O.2       1 <0>        -0.5296
     21 N3          4.3623    0.4893    1.1294 N.am      1 <0>        -0.8472
     22 Cl1         0.0725    7.3789    0.0269 Cl        1 <0>         0.0399
     23 H1          2.7994    9.7310   -1.0027 H         1 <0>         0.0926
     24 H2          1.9249    9.6954    0.5472 H         1 <0>         0.0910
     25 H3          3.7039    9.7511    0.5302 H         1 <0>         0.0892
     26 H4          3.3110    3.3161   -0.0125 H         1 <0>         0.4262
     27 H5         -1.6039   -0.9775    1.0041 H         1 <0>         0.0845
     28 H6         -1.9101   -0.6076   -0.7123 H         1 <0>         0.0827
     29 H7         -1.4347   -3.0798   -0.1752 H         1 <0>         0.0750
     30 H8         -0.4155   -2.3578   -1.4450 H         1 <0>         0.0693
     31 H9          0.3894   -2.4701    1.4941 H         1 <0>         0.0675
     32 H10         0.8508   -3.7130    0.3075 H         1 <0>         0.0710
     33 H11         2.6018   -1.9187    0.6533 H         1 <0>         0.0729
     34 H12         2.0501   -2.0762   -1.0330 H         1 <0>         0.0804
     35 H13         3.8904    0.5522    1.9745 H         1 <0>         0.4040
     36 H14         5.3228    0.3543    1.1191 H         1 <0>         0.4047
@<TRIPOS>BOND
     1    1    2 1
     2    1   23 1
     3    1   24 1
     4    1   25 1
     5    2    6 2
     6    2    3 1
     7    3    4 2
     8    3   22 1
     9    4    5 1
    10    4    7 1
    11    5    6 1
    12    7    8 2
    13    7    9 am
    14    9   10 1
    15    9   26 1
    16   10   14 1
    17   10   11 2
    18   11   12 1
    19   11   19 1
    20   12   18 1
    21   12   13 2
    22   13   14 1
    23   13   15 1
    24   15   16 1
    25   15   27 1
    26   15   28 1
    27   16   17 1
    28   16   29 1
    29   16   30 1
    30   17   18 1
    31   17   31 1
    32   17   32 1
    33   18   33 1
    34   18   34 1
    35   19   20 2
    36   19   21 am
    37   21   35 1
    38   21   36 1
@<TRIPOS>MOLECULE
ZINC19733786
   34    36     0     0     0
SMALL
USER_CHARGES
2-[(6-amino-[1,2,4]triazolo[4,5-a]pyridin-3-yl)sulfanyl]-N-(4-fluorophenyl)acetamide
@<TRIPOS>ATOM
      1 C1          8.5832    8.0202   -0.8355 C.ar      1 <0>        -0.1134
      2 C2          9.1525    9.2740   -0.9428 C.ar      1 <0>        -0.1345
      3 C3          8.5466   10.3643   -0.3413 C.ar      1 <0>         0.0849
      4 C4          7.3662   10.2010    0.3639 C.ar      1 <0>        -0.1342
      5 C5          6.7907    8.9499    0.4688 C.ar      1 <0>        -0.0938
      6 C6          7.3966    7.8554   -0.1336 C.ar      1 <0>         0.1373
      7 N1          6.8147    6.5860   -0.0286 N.am      1 <0>        -0.6779
      8 C7          5.4731    6.4585   -0.0183 C.2       1 <0>         0.5396
      9 O1          4.7699    7.4468   -0.0155 O.2       1 <0>        -0.5073
     10 C8          4.8465    5.0879   -0.0105 C.3       1 <0>        -0.1469
     11 S1          3.0397    5.2491    0.0025 S.3       1 <0>         0.0770
     12 C9          2.4633    3.5841    0.0107 C.2       1 <0>         0.0995
     13 N2          3.2090    2.5018    0.0070 N.2       1 <0>        -0.2570
     14 N3          2.4682    1.4500    0.0144 N.2       1 <0>        -0.2707
     15 C10         1.1950    1.8030    0.0234 C.2       1 <0>         0.1699
     16 N4          1.1615    3.1803    0.0213 N.pl3     1 <0>        -0.3365
     17 C11        -0.0363    3.8454    0.0292 C.2       1 <0>        -0.0718
     18 C12        -1.2015    3.1562    0.0388 C.2       1 <0>         0.2200
     19 C13        -1.1937    1.7444    0.0359 C.2       1 <0>        -0.1258
     20 C14        -0.0117    1.0750    0.0339 C.2       1 <0>        -0.0372
     21 N5         -2.4208    3.8471    0.0468 N.pl3     1 <0>        -0.8860
     22 F1          9.1077   11.5890   -0.4431 F         1 <0>        -0.1387
     23 H1          9.0584    7.1694   -1.3010 H         1 <0>         0.1380
     24 H2         10.0729    9.4035   -1.4927 H         1 <0>         0.1407
     25 H3          6.8950   11.0527    0.8320 H         1 <0>         0.1398
     26 H4          5.8698    8.8230    1.0186 H         1 <0>         0.1489
     27 H5          7.4526    5.6929    0.0455 H         1 <0>         0.4426
     28 H6          5.1590    4.5368   -0.9097 H         1 <0>         0.1320
     29 H7          5.1723    4.5409    0.8865 H         1 <0>         0.1319
     30 H8         -0.0510    4.9253    0.0274 H         1 <0>         0.1626
     31 H9         -2.1252    1.1980    0.0394 H         1 <0>         0.1500
     32 H10         0.0031   -0.0049    0.0357 H         1 <0>         0.1636
     33 H11        -3.3689    3.2894    0.0546 H         1 <0>         0.4282
     34 H12        -2.4297    4.9471    0.0453 H         1 <0>         0.4252
@<TRIPOS>BOND
     1    1    6 ar
     2    1    2 ar
     3    1   23 1
     4    2    3 ar
     5    2   24 1
     6    3    4 ar
     7    3   22 1
     8    4    5 ar
     9    4   25 1
    10    5    6 ar
    11    5   26 1
    12    6    7 1
    13    7    8 am
    14    7   27 1
    15    8    9 2
    16    8   10 1
    17   10   11 1
    18   10   28 1
    19   10   29 1
    20   11   12 1
    21   12   16 1
    22   12   13 2
    23   13   14 1
    24   14   15 2
    25   15   20 1
    26   15   16 1
    27   16   17 1
    28   17   18 2
    29   17   30 1
    30   18   19 1
    31   18   21 1
    32   19   20 2
    33   19   31 1
    34   20   32 1
    35   21   33 1
    36   21   34 1
@<TRIPOS>MOLECULE
ZINC36316759
   35    36     0     0     0
SMALL
USER_CHARGES

@<TRIPOS>ATOM
      1 C1          0.0082    1.4251   -0.0081 C.3       1 <0>         0.0144
      2 O1          0.0209   -0.0039   -0.0113 O.3       1 <0>        -0.2722
      3 C2          0.6467   -0.6165    1.0247 C.ar      1 <0>         0.2451
      4 C3          1.2330    0.1389    2.0294 C.ar      1 <0>        -0.2359
      5 C4          1.8695   -0.4860    3.0832 C.ar      1 <0>         0.0475
      6 C5          1.9276   -1.8688    3.1465 C.ar      1 <0>        -0.7247
      7 C6          1.3502   -2.6348    2.1574 C.ar      1 <0>         0.0570
      8 C7          0.6986   -2.0156    1.0877 C.ar      1 <0>        -0.1943
      9 C8          0.0734   -2.8296    0.0283 C.2       1 <0>         0.5666
     10 O2         -0.4892   -2.2870   -0.9032 O.2       1 <0>        -0.4921
     11 N1          0.1257   -4.1748    0.0928 N.am      1 <0>        -0.6710
     12 C9         -0.5468   -4.9479   -0.8608 C.ar      1 <0>         0.1150
     13 C10        -0.6425   -4.5056   -2.1732 C.ar      1 <0>        -0.0945
     14 C11        -1.3063   -5.2708   -3.1123 C.ar      1 <0>        -0.1097
     15 C12        -1.8759   -6.4769   -2.7474 C.ar      1 <0>        -0.1040
     16 C13        -1.7835   -6.9220   -1.4415 C.ar      1 <0>        -0.1349
     17 C14        -1.1158   -6.1636   -0.4971 C.ar      1 <0>         0.0720
     18 F1         -1.0205   -6.6009    0.7776 F         1 <0>        -0.1368
     19 S1          2.7442   -2.6513    4.4976 S.o2      1 <0>         2.7062
     20 O3          3.1346   -3.9404    4.0447 O.2       1 <0>        -0.9599
     21 O4          3.6765   -1.7090    5.0096 O.2       1 <0>        -0.9567
     22 N2          1.6121   -2.8889    5.6826 N.pl3     1 <0>        -1.2475
     23 H1          1.0324    1.7976   -0.0231 H         1 <0>         0.0643
     24 H2         -0.5225    1.7857   -0.8893 H         1 <0>         0.1112
     25 H3         -0.4952    1.7820    0.8904 H         1 <0>         0.0639
     26 H4          1.1919    1.2173    1.9872 H         1 <0>         0.1510
     27 H5          2.3251    0.1067    3.8627 H         1 <0>         0.1541
     28 H6          1.3983   -3.7124    2.2106 H         1 <0>         0.1506
     29 H7          0.6294   -4.6073    0.8001 H         1 <0>         0.4126
     30 H8         -0.1985   -3.5637   -2.4598 H         1 <0>         0.1501
     31 H9         -1.3810   -4.9264   -4.1332 H         1 <0>         0.1348
     32 H10        -2.3945   -7.0725   -3.4841 H         1 <0>         0.1356
     33 H11        -2.2294   -7.8644   -1.1598 H         1 <0>         0.1408
     34 H12         1.6960   -3.6407    6.2898 H         1 <0>         0.4235
     35 H13         0.8651   -2.2762    5.7696 H         1 <0>         0.4178
@<TRIPOS>BOND
     1    1    2 1
     2    1   23 1
     3    1   24 1
     4    1   25 1
     5    2    3 1
     6    3    8 ar
     7    3    4 ar
     8    4    5 ar
     9    4   26 1
    10    5    6 ar
    11    5   27 1
    12    6    7 ar
    13    6   19 1
    14    7    8 ar
    15    7   28 1
    16    8    9 1
    17    9   10 2
    18    9   11 am
    19   11   12 1
    20   11   29 1
    21   12   17 ar
    22   12   13 ar
    23   13   14 ar
    24   13   30 1
    25   14   15 ar
    26   14   31 1
    27   15   16 ar
    28   15   32 1
    29   16   17 ar
    30   16   33 1
    31   17   18 1
    32   19   20 2
    33   19   21 2
    34   19   22 1
    35   22   34 1
    36   22   35 1
@<TRIPOS>MOLECULE
ZINC48949956
   32    32     0     0     0
SMALL
USER_CHARGES

@<TRIPOS>ATOM
      1 C1         -0.0485    1.2729    0.3438 C.3       1 <0>        -0.1820
      2 C2         -0.0149   -0.2297    0.0577 C.3       1 <0>         0.0762
      3 H1          0.5054   -0.7421    0.8670 H         1 <0>         0.1090
      4 C3         -1.4243   -0.7533   -0.0443 C.2       1 <0>         0.5191
      5 O1         -1.8328   -1.1938   -1.0979 O.2       1 <0>        -0.4940
      6 N1         -2.2309   -0.7321    1.0353 N.am      1 <0>        -0.5267
      7 N2         -3.5412   -1.2188    0.9405 N.am      1 <0>        -0.5284
      8 C4         -4.3477   -1.1976    2.0200 C.2       1 <0>         0.7123
      9 O2         -5.4849   -1.6200    1.9377 O.2       1 <0>        -0.5628
     10 N3         -3.8938   -0.7081    3.1908 N.am      1 <0>        -0.7475
     11 C5         -4.7705   -0.6850    4.3643 C.3       1 <0>         0.1023
     12 O3          0.6709   -0.4649   -1.1737 O.3       1 <0>        -0.2657
     13 C6          2.0263   -0.5530   -1.1182 C.ar      1 <0>         0.1602
     14 C7          2.6903   -0.3032    0.0738 C.ar      1 <0>        -0.1954
     15 C8          4.0677   -0.3937    0.1285 C.ar      1 <0>        -0.0521
     16 C9          4.7856   -0.7329   -1.0048 C.ar      1 <0>        -0.0671
     17 C10         4.1259   -0.9825   -2.1949 C.ar      1 <0>        -0.0416
     18 C11         2.7472   -0.8987   -2.2526 C.ar      1 <0>        -0.1131
     19 Br1         1.8450   -1.2470   -3.8775 Br        1 <0>        -0.0125
     20 Cl1         6.5165   -0.8447   -0.9333 Cl        1 <0>        -0.0536
     21 H2          0.9709    1.6517    0.4176 H         1 <0>         0.0845
     22 H3         -0.5688    1.7853   -0.4655 H         1 <0>         0.0835
     23 H4         -0.5716    1.4524    1.2831 H         1 <0>         0.0826
     24 H5         -1.9042   -0.3798    1.8779 H         1 <0>         0.4196
     25 H6         -3.8679   -1.5711    0.0978 H         1 <0>         0.4459
     26 H7         -2.9866   -0.3711    3.2565 H         1 <0>         0.3917
     27 H8         -5.6502   -0.0786    4.1487 H         1 <0>         0.0641
     28 H9         -5.0804   -1.7016    4.6064 H         1 <0>         0.0641
     29 H10        -4.2332   -0.2576    5.2109 H         1 <0>         0.0807
     30 H11         2.1307   -0.0378    0.9586 H         1 <0>         0.1484
     31 H12         4.5847   -0.1992    1.0566 H         1 <0>         0.1460
     32 H13         4.6879   -1.2471   -3.0784 H         1 <0>         0.1521
@<TRIPOS>BOND
     1    1    2 1
     2    1   21 1
     3    1   22 1
     4    1   23 1
     5    2    3 1
     6    2    4 1
     7    2   12 1
     8    4    5 2
     9    4    6 am
    10    6    7 1
    11    6   24 1
    12    7    8 am
    13    7   25 1
    14    8    9 2
    15    8   10 am
    16   10   11 1
    17   10   26 1
    18   11   27 1
    19   11   28 1
    20   11   29 1
    21   12   13 1
    22   13   18 ar
    23   13   14 ar
    24   14   15 ar
    25   14   30 1
    26   15   16 ar
    27   15   31 1
    28   16   17 ar
    29   16   20 1
    30   17   18 ar
    31   17   32 1
    32   18   19 1
@<TRIPOS>MOLECULE
ZINC63269534
   42    43     0     0     0
SMALL
USER_CHARGES

@<TRIPOS>ATOM
      1 C1         -0.0184    1.5028    0.0103 C.3       1 <0>        -0.1019
      2 C2          0.0021   -0.0041    0.0020 C.2       1 <0>        -0.0671
      3 C3          0.0066   -0.7130   -1.1427 C.2       1 <0>        -0.1751
      4 S1          0.0327   -2.4003   -0.5784 S.3       1 <0>         0.2225
      5 C4          0.0371   -2.1567    1.0816 C.2       1 <0>         0.0462
      6 C5          0.0242   -0.7778    1.2215 C.2       1 <0>        -0.2115
      7 C6          0.0279   -0.1367    2.5414 C.2       1 <0>         0.5888
      8 O1         -1.0243    0.1148    3.0987 O.2       1 <0>        -0.5148
      9 N1          1.1967    0.1736    3.1365 N.am      1 <0>        -0.5238
     10 N2          1.2003    0.7858    4.3966 N.am      1 <0>        -0.5328
     11 C7          2.3691    1.0961    4.9917 C.2       1 <0>         0.7150
     12 O2          2.3722    1.6273    6.0854 O.2       1 <0>        -0.5649
     13 N3          3.5344    0.8175    4.3745 N.am      1 <0>        -0.7390
     14 C8          4.8048    1.1549    5.0214 C.3       1 <0>         0.1523
     15 C9          5.9077    0.2382    4.4883 C.3       1 <0>        -0.1628
     16 C10         5.1610    2.6115    4.7174 C.3       1 <0>        -0.1663
     17 N4          0.0552   -3.1179    2.0867 N.pl3     1 <0>        -0.3652
     18 C11         0.0515   -2.8667    3.4304 C.2       1 <0>        -0.0100
     19 C12         0.0734   -4.0481    4.0795 C.2       1 <0>        -0.1757
     20 C13         0.0912   -5.0669    3.1049 C.2       1 <0>        -0.1701
     21 C14         0.0736   -4.4713    1.8956 C.2       1 <0>        -0.0189
     22 C15        -0.0075   -0.2009   -2.5599 C.3       1 <0>        -0.0697
     23 H1          1.0042    1.8801    0.0026 H         1 <0>         0.0771
     24 H2         -0.5455    1.8639   -0.8728 H         1 <0>         0.0802
     25 H3         -0.5286    1.8543    0.9071 H         1 <0>         0.0689
     26 H4          2.0354   -0.0268    2.6922 H         1 <0>         0.4203
     27 H5          0.3616    0.9862    4.8409 H         1 <0>         0.4439
     28 H6          3.5319    0.3937    3.5020 H         1 <0>         0.3895
     29 H7          4.7106    1.0212    6.0991 H         1 <0>         0.0930
     30 H8          6.0020    0.3719    3.4106 H         1 <0>         0.0610
     31 H9          6.8530    0.4892    4.9696 H         1 <0>         0.0780
     32 H10         5.6540   -0.7995    4.7049 H         1 <0>         0.0630
     33 H11         6.1062    2.8624    5.1987 H         1 <0>         0.0693
     34 H12         5.2552    2.7451    3.6397 H         1 <0>         0.0563
     35 H13         4.3752    3.2645    5.0972 H         1 <0>         0.0624
     36 H14         0.0341   -1.8906    3.8922 H         1 <0>         0.1641
     37 H15         0.0772   -4.1885    5.1503 H         1 <0>         0.1484
     38 H16         0.1111   -6.1303    3.2928 H         1 <0>         0.1506
     39 H17         0.0766   -4.9761    0.9408 H         1 <0>         0.1718
     40 H18         1.0166   -0.0628   -2.9066 H         1 <0>         0.0830
     41 H19        -0.5143   -0.9217   -3.2016 H         1 <0>         0.0776
     42 H20        -0.5352    0.7522   -2.5966 H         1 <0>         0.0864
@<TRIPOS>BOND
     1    1    2 1
     2    1   23 1
     3    1   24 1
     4    1   25 1
     5    2    6 1
     6    2    3 2
     7    3    4 1
     8    3   22 1
     9    4    5 1
    10    5    6 2
    11    5   17 1
    12    6    7 1
    13    7    8 2
    14    7    9 am
    15    9   10 1
    16    9   26 1
    17   10   11 am
    18   10   27 1
    19   11   12 2
    20   11   13 am
    21   13   14 1
    22   13   28 1
    23   14   15 1
    24   14   16 1
    25   14   29 1
    26   15   30 1
    27   15   31 1
    28   15   32 1
    29   16   33 1
    30   16   34 1
    31   16   35 1
    32   17   21 1
    33   17   18 1
    34   18   19 2
    35   18   36 1
    36   19   20 1
    37   19   37 1
    38   20   21 2
    39   20   38 1
    40   21   39 1
    41   22   40 1
    42   22   41 1
    43   22   42 1
@<TRIPOS>MOLECULE
ZINC01510157
   42    45     0     0     0
SMALL
USER_CHARGES
benzoylaminoiminoBLAHcarboxamide
@<TRIPOS>ATOM
      1 C1         -9.9623   -1.0956    3.4700 C.ar      1 <0>        -0.0872
      2 C2         -9.7864   -2.4429    3.7313 C.ar      1 <0>        -0.1250
      3 C3         -8.6288   -3.0801    3.3348 C.ar      1 <0>        -0.0533
      4 C4         -7.6339   -2.3625    2.6687 C.ar      1 <0>        -0.1349
      5 C5         -7.8154   -1.0021    2.4133 C.ar      1 <0>        -0.0861
      6 C6         -8.9803   -0.3786    2.8097 C.ar      1 <0>        -0.1229
      7 C7         -6.3911   -3.0386    2.2409 C.2       1 <0>         0.5778
      8 O1         -6.2336   -4.2233    2.4693 O.2       1 <0>        -0.4918
      9 N1         -5.4324   -2.3430    1.5980 N.am      1 <0>        -0.5598
     10 N2         -4.2545   -2.9839    1.1925 N.2       1 <0>        -0.2277
     11 C8         -3.3770   -2.3413    0.4686 C.2       1 <0>         0.3055
     12 C9         -3.6831   -1.0137   -0.1099 C.2       1 <0>        -0.2674
     13 C10        -2.6083   -0.1785   -0.3779 C.2       1 <0>         0.0692
     14 C11        -1.3045   -0.6582   -0.1132 C.ar      1 <0>        -0.1652
     15 C12        -0.1495    0.2376   -0.1746 C.ar      1 <0>         0.0076
     16 C13        -0.2855    1.5869   -0.5137 C.ar      1 <0>        -0.1231
     17 C14         0.8185    2.3876   -0.5539 C.ar      1 <0>        -0.0863
     18 C15         2.0804    1.8788   -0.2609 C.ar      1 <0>        -0.1224
     19 C16         2.2477    0.5685    0.0729 C.ar      1 <0>        -0.0849
     20 C17         1.1328   -0.2842    0.1219 C.ar      1 <0>        -0.0812
     21 C18         1.2678   -1.6446    0.4580 C.ar      1 <0>        -0.0257
     22 C19         0.1878   -2.4676    0.4944 C.ar      1 <0>        -0.1389
     23 C20        -1.0982   -2.0054    0.2084 C.ar      1 <0>         0.1779
     24 O2         -2.1459   -2.8680    0.2172 O.3       1 <0>        -0.2062
     25 C21        -5.0663   -0.5983   -0.3890 C.2       1 <0>         0.5696
     26 O3         -5.3993    0.5597   -0.2209 O.2       1 <0>        -0.5245
     27 N3         -5.9648   -1.5005   -0.8308 N.am      1 <0>        -0.8459
     28 H1        -10.8704   -0.6015    3.7825 H         1 <0>         0.1313
     29 H2        -10.5568   -2.9968    4.2470 H         1 <0>         0.1346
     30 H3         -8.4925   -4.1317    3.5397 H         1 <0>         0.1402
     31 H4         -7.0476   -0.4402    1.9023 H         1 <0>         0.1218
     32 H5         -9.1241    0.6728    2.6085 H         1 <0>         0.1327
     33 H6         -5.5580   -1.3985    1.4159 H         1 <0>         0.3883
     34 H7         -2.7632    0.8124   -0.7785 H         1 <0>         0.1576
     35 H8         -1.2589    1.9925   -0.7470 H         1 <0>         0.1322
     36 H9          0.7118    3.4298   -0.8165 H         1 <0>         0.1315
     37 H10         2.9396    2.5322   -0.2987 H         1 <0>         0.1305
     38 H11         3.2326    0.1875    0.2990 H         1 <0>         0.1356
     39 H12         2.2455   -2.0402    0.6903 H         1 <0>         0.1487
     40 H13         0.3276   -3.5071    0.7519 H         1 <0>         0.1495
     41 H14        -5.7196   -2.4367   -0.8970 H         1 <0>         0.4061
     42 H15        -6.8565   -1.2137   -1.0826 H         1 <0>         0.4119
@<TRIPOS>BOND
     1    1    6 ar
     2    1    2 ar
     3    1   28 1
     4    2    3 ar
     5    2   29 1
     6    3    4 ar
     7    3   30 1
     8    4    5 ar
     9    4    7 1
    10    5    6 ar
    11    5   31 1
    12    6   32 1
    13    7    8 2
    14    7    9 am
    15    9   10 1
    16    9   33 1
    17   10   11 2
    18   11   24 1
    19   11   12 1
    20   12   13 2
    21   12   25 1
    22   13   14 1
    23   13   34 1
    24   14   23 ar
    25   14   15 ar
    26   15   20 ar
    27   15   16 ar
    28   16   17 ar
    29   16   35 1
    30   17   18 ar
    31   17   36 1
    32   18   19 ar
    33   18   37 1
    34   19   20 ar
    35   19   38 1
    36   20   21 ar
    37   21   22 ar
    38   21   39 1
    39   22   23 ar
    40   22   40 1
    41   23   24 1
    42   25   26 2
    43   25   27 am
    44   27   41 1
    45   27   42 1
@<TRIPOS>MOLECULE
ZINC14470648
   42    45     0     0     0
SMALL
USER_CHARGES
(3aR,4S,9bS)-4-(4-chloro-3-nitro-phenyl)-3a,4,5,9b-tetrahydro-3H-cyclopenta[c]quinoline-6-carboxamide
@<TRIPOS>ATOM
      1 C1          0.0000    0.0108   -2.6507 C.ar      1 <0>        -0.1614
      2 C2          0.5569    0.2243   -1.4030 C.ar      1 <0>        -0.0495
      3 C3          0.0597    1.2040   -0.5561 C.ar      1 <0>        -0.1336
      4 C4         -1.0207    2.0006   -0.9505 C.ar      1 <0>         0.2084
      5 C5         -1.5964    1.8017   -2.2204 C.ar      1 <0>        -0.2270
      6 C6         -1.0650    0.7745   -3.0751 C.ar      1 <0>        -0.0483
      7 C7         -2.7380    2.6300   -2.6499 C.2       1 <0>         0.5709
      8 O1         -3.2510    3.4095   -1.8702 O.2       1 <0>        -0.5384
      9 N1         -3.2131    2.5231   -3.9066 N.am      1 <0>        -0.8475
     10 N2         -1.5629    2.9840   -0.1380 N.pl3     1 <0>        -0.6054
     11 C8         -0.5937    3.5062    0.8256 C.3       1 <0>         0.1308
     12 H1         -1.0779    4.2450    1.4643 H         1 <0>         0.1180
     13 C9         -0.0621    2.3575    1.6864 C.3       1 <0>        -0.0797
     14 H2         -0.8345    1.8680    2.2795 H         1 <0>         0.1150
     15 C10         0.7168    1.3781    0.7816 C.3       1 <0>        -0.0179
     16 H3          0.8147    0.4118    1.2765 H         1 <0>         0.1019
     17 C11         2.0764    2.0203    0.6294 C.2       1 <0>        -0.1591
     18 C12         2.2932    2.8706    1.6017 C.2       1 <0>        -0.1644
     19 C13         1.1086    2.9107    2.5469 C.3       1 <0>        -0.1019
     20 C14         0.5504    4.1525    0.0878 C.ar      1 <0>        -0.0946
     21 C15         0.8021    3.8146   -1.2291 C.ar      1 <0>        -0.0756
     22 C16         1.8512    4.4068   -1.9063 C.ar      1 <0>        -0.1023
     23 C17         2.6496    5.3382   -1.2661 C.ar      1 <0>         0.0110
     24 C18         2.3973    5.6758    0.0514 C.ar      1 <0>        -0.0378
     25 C19         1.3441    5.0868    0.7260 C.ar      1 <0>        -0.0251
     26 N3          3.2511    6.6715    0.7369 N.pl3     1 <0>         0.0267
     27 O2          3.0288    6.9687    1.8970 O.2       1 <0>        -0.1605
     28 O3          4.1761    7.1938    0.1410 O.3       1 <0>        -0.1356
     29 Cl1         3.9673    6.0830   -2.1163 Cl        1 <0>        -0.0054
     30 H4          0.4018   -0.7573   -3.2949 H         1 <0>         0.1324
     31 H5          1.3923   -0.3809   -1.0831 H         1 <0>         0.1303
     32 H6         -1.4987    0.6077   -4.0500 H         1 <0>         0.1297
     33 H7         -2.8039    1.9012   -4.5285 H         1 <0>         0.4024
     34 H8         -3.9641    3.0680   -4.1892 H         1 <0>         0.4077
     35 H9         -1.9621    3.7289   -0.6892 H         1 <0>         0.3908
     36 H10         2.7719    1.8076   -0.1690 H         1 <0>         0.1253
     37 H11         3.1907    3.4606    1.7145 H         1 <0>         0.1215
     38 H12         1.2855    2.2704    3.4111 H         1 <0>         0.0901
     39 H13         0.9051    3.9335    2.8638 H         1 <0>         0.0786
     40 H14         0.1786    3.0879   -1.7287 H         1 <0>         0.1611
     41 H15         2.0479    4.1426   -2.9348 H         1 <0>         0.1547
     42 H16         1.1443    5.3536    1.7533 H         1 <0>         0.1635
@<TRIPOS>BOND
     1    1    6 ar
     2    1    2 ar
     3    1   30 1
     4    2    3 ar
     5    2   31 1
     6    3   15 1
     7    3    4 ar
     8    4    5 ar
     9    4   10 1
    10    5    6 ar
    11    5    7 1
    12    6   32 1
    13    7    8 2
    14    7    9 am
    15    9   33 1
    16    9   34 1
    17   10   11 1
    18   10   35 1
    19   11   12 1
    20   11   13 1
    21   11   20 1
    22   13   14 1
    23   13   19 1
    24   13   15 1
    25   15   16 1
    26   15   17 1
    27   17   18 2
    28   17   36 1
    29   18   19 1
    30   18   37 1
    31   19   38 1
    32   19   39 1
    33   20   25 ar
    34   20   21 ar
    35   21   22 ar
    36   21   40 1
    37   22   23 ar
    38   22   41 1
    39   23   24 ar
    40   23   29 1
    41   24   25 ar
    42   24   26 1
    43   25   42 1
    44   26   27 2
    45   26   28 1
@<TRIPOS>MOLECULE
ZINC37042079
   30    31     0     0     0
SMALL
USER_CHARGES

@<TRIPOS>ATOM
      1 C1         -0.1067    1.6977   -0.0765 C.ar      1 <0>        -0.0612
      2 C2          1.1174    2.3348   -0.0568 C.ar      1 <0>        -0.1830
      3 C3          2.2899    1.5905   -0.0510 C.ar      1 <0>         0.2825
      4 C4          2.2237    0.1886   -0.0653 C.ar      1 <0>        -0.2172
      5 C5          0.9776   -0.4435   -0.0853 C.ar      1 <0>        -0.0621
      6 C6         -0.1768    0.3121   -0.0907 C.ar      1 <0>         0.0308
      7 F1         -1.3810   -0.3001   -0.1100 F         1 <0>        -0.1376
      8 C7          3.4612   -0.6122   -0.0598 C.2       1 <0>         0.5855
      9 O1          4.5399   -0.0637    0.0611 O.2       1 <0>        -0.5253
     10 N1          3.3974   -1.9522   -0.1888 N.am      1 <0>        -0.6640
     11 C8          4.5626   -2.7203   -0.0940 C.ar      1 <0>         0.2366
     12 C9          5.7630   -2.2278   -0.5900 C.ar      1 <0>        -0.1197
     13 C10         6.9118   -2.9880   -0.4947 C.ar      1 <0>        -0.0169
     14 C11         6.8680   -4.2394    0.0944 C.ar      1 <0>        -0.1143
     15 C12         5.6738   -4.7327    0.5889 C.ar      1 <0>        -0.0072
     16 C13         4.5227   -3.9743    0.5013 C.ar      1 <0>        -0.0773
     17 N2          3.2466   -4.5002    1.0361 N.pl3     1 <0>         0.0446
     18 O2          3.2284   -5.5525    1.6311 O.2       1 <0>        -0.1329
     19 O3          2.2225   -3.8774    0.8779 O.3       1 <0>        -0.1770
     20 Br1         8.4433   -5.2775    0.2231 Br        1 <0>        -0.0101
     21 N3          3.5234    2.2311   -0.0315 N.pl3     1 <0>        -0.8496
     22 H1         -1.0155    2.2811   -0.0765 H         1 <0>         0.1439
     23 H2          1.1635    3.4138   -0.0462 H         1 <0>         0.1422
     24 H3          0.9183   -1.5218   -0.0967 H         1 <0>         0.1430
     25 H4          2.5434   -2.3841   -0.3474 H         1 <0>         0.4298
     26 H5          5.7977   -1.2514   -1.0502 H         1 <0>         0.1722
     27 H6          7.8452   -2.6057   -0.8805 H         1 <0>         0.1588
     28 H7          5.6424   -5.7100    1.0475 H         1 <0>         0.1686
     29 H8          3.5692    3.1976   -0.1004 H         1 <0>         0.3995
     30 H9          4.3384    1.7116    0.0509 H         1 <0>         0.4176
@<TRIPOS>BOND
     1    1    6 ar
     2    1    2 ar
     3    1   22 1
     4    2    3 ar
     5    2   23 1
     6    3    4 ar
     7    3   21 1
     8    4    5 ar
     9    4    8 1
    10    5    6 ar
    11    5   24 1
    12    6    7 1
    13    8    9 2
    14    8   10 am
    15   10   11 1
    16   10   25 1
    17   11   16 ar
    18   11   12 ar
    19   12   13 ar
    20   12   26 1
    21   13   14 ar
    22   13   27 1
    23   14   15 ar
    24   14   20 1
    25   15   16 ar
    26   15   28 1
    27   16   17 1
    28   17   18 2
    29   17   19 1
    30   21   29 1
    31   21   30 1
@<TRIPOS>MOLECULE
ZINC45623236
   30    31     0     0     0
SMALL
USER_CHARGES

@<TRIPOS>ATOM
      1 C1         -0.0189    1.3746   -0.0240 C.ar      1 <0>        -0.0821
      2 C2          1.0864    1.9474   -0.6261 C.ar      1 <0>        -0.1558
      3 C3          2.2980    1.2820   -0.6319 C.ar      1 <0>        -0.0804
      4 C4          2.4078    0.0361   -0.0327 C.ar      1 <0>         0.0652
      5 C5          1.2932   -0.5415    0.5750 C.ar      1 <0>         0.1956
      6 C6          0.0813    0.1334    0.5760 C.ar      1 <0>        -0.1795
      7 N1          1.3968   -1.7983    1.1809 N.pl3     1 <0>        -0.8797
      8 N2          3.6344   -0.6404   -0.0383 N.am      1 <0>        -0.6563
      9 C7          4.7855    0.0520   -0.1482 C.2       1 <0>         0.5503
     10 O1          4.7666    1.2677   -0.1413 O.2       1 <0>        -0.4750
     11 C8          6.0703   -0.6662   -0.2770 C.ar      1 <0>        -0.1112
     12 C9          6.0952   -2.0622   -0.2911 C.ar      1 <0>        -0.0202
     13 C10         7.2977   -2.7263   -0.4121 C.ar      1 <0>        -0.0432
     14 C11         8.4788   -2.0127   -0.5195 C.ar      1 <0>        -0.0232
     15 C12         8.4626   -0.6300   -0.5064 C.ar      1 <0>        -0.0928
     16 C13         7.2651    0.0483   -0.3911 C.ar      1 <0>        -0.0029
     17 Br1         7.2437    1.9391   -0.3811 Br        1 <0>         0.0327
     18 N3          7.3254   -4.2062   -0.4267 N.pl3     1 <0>         0.0306
     19 O2          6.2947   -4.8310   -0.3326 O.2       1 <0>        -0.1489
     20 O3          8.3787   -4.7900   -0.5327 O.3       1 <0>        -0.1408
     21 H1         -0.9621    1.9006   -0.0187 H         1 <0>         0.1244
     22 H2          1.0027    2.9174   -1.0935 H         1 <0>         0.1244
     23 H3          3.1591    1.7322   -1.1034 H         1 <0>         0.1459
     24 H4         -0.7838   -0.3109    1.0456 H         1 <0>         0.1261
     25 H5          2.2448   -2.2693    1.1787 H         1 <0>         0.3910
     26 H6          0.6207   -2.1986    1.6031 H         1 <0>         0.4040
     27 H7          3.6554   -1.6073    0.0370 H         1 <0>         0.4021
     28 H8          5.1746   -2.6206   -0.2071 H         1 <0>         0.1607
     29 H9          9.4176   -2.5383   -0.6137 H         1 <0>         0.1709
     30 H10         9.3879   -0.0794   -0.5906 H         1 <0>         0.1681
@<TRIPOS>BOND
     1    1    6 ar
     2    1    2 ar
     3    1   21 1
     4    2    3 ar
     5    2   22 1
     6    3    4 ar
     7    3   23 1
     8    4    5 ar
     9    4    8 1
    10    5    6 ar
    11    5    7 1
    12    6   24 1
    13    7   25 1
    14    7   26 1
    15    8    9 am
    16    8   27 1
    17    9   10 2
    18    9   11 1
    19   11   16 ar
    20   11   12 ar
    21   12   13 ar
    22   12   28 1
    23   13   14 ar
    24   13   18 1
    25   14   15 ar
    26   14   29 1
    27   15   16 ar
    28   15   30 1
    29   16   17 1
    30   18   19 2
    31   18   20 1
@<TRIPOS>MOLECULE
ZINC01430184
   43    47     0     0     0
SMALL
USER_CHARGES

@<TRIPOS>ATOM
      1 C1         -0.3587    1.4761    0.0045 C.3       1 <0>        -0.1054
      2 C2         -0.1443   -0.0156   -0.0005 C.2       1 <0>         0.1267
      3 C3          0.0074   -0.7686   -1.1013 C.2       1 <0>        -0.2312
      4 C4          0.1891   -2.1512   -0.6527 C.ar      1 <0>        -0.0817
      5 C5          0.3900   -3.3664   -1.3104 C.ar      1 <0>        -0.0921
      6 C6          0.5272   -4.5158   -0.5847 C.ar      1 <0>        -0.1371
      7 C7          0.4684   -4.4855    0.8021 C.ar      1 <0>        -0.0973
      8 C8          0.2709   -3.2977    1.4711 C.ar      1 <0>        -0.1277
      9 C9          0.1287   -2.1151    0.7522 C.ar      1 <0>         0.0949
     10 N1         -0.0696   -0.8022    1.1166 N.pl3     1 <0>        -0.4776
     11 C10        -0.1861   -0.3198    2.4950 C.3       1 <0>         0.0746
     12 C11        -0.0065   -0.2837   -2.5281 C.3       1 <0>         0.4765
     13 H1         -0.3716    0.7426   -2.5692 H         1 <0>         0.1180
     14 N2         -0.8639   -1.1571   -3.3491 N.pl3     1 <0>        -0.7588
     15 C12        -0.3680   -2.3369   -3.8364 C.2       1 <0>         0.6709
     16 N3          0.9159   -2.4789   -4.1173 N.2       1 <0>        -0.5685
     17 C13         1.7516   -1.4476   -3.8556 C.2       1 <0>         0.5030
     18 N4          1.3446   -0.3592   -3.0974 N.pl3     1 <0>        -0.5439
     19 C14         2.3926    0.5079   -3.0249 C.ar      1 <0>         0.0680
     20 C15         2.5544    1.7500   -2.4233 C.ar      1 <0>        -0.1167
     21 C16         3.7911    2.3613   -2.5561 C.ar      1 <0>        -0.1112
     22 C17         4.8301    1.7719   -3.2549 C.ar      1 <0>        -0.1330
     23 C18         4.6960    0.5369   -3.8633 C.ar      1 <0>        -0.0667
     24 C19         3.4551   -0.0997   -3.7433 C.ar      1 <0>         0.0627
     25 N5          3.0039   -1.2863   -4.2116 N.2       1 <0>        -0.4890
     26 N6         -1.2185   -3.3901   -4.0360 N.pl3     1 <0>        -0.8196
     27 H2          0.6062    1.9817    0.0410 H         1 <0>         0.0861
     28 H3         -0.8889    1.7700   -0.9013 H         1 <0>         0.0852
     29 H4         -0.9485    1.7554    0.8776 H         1 <0>         0.0777
     30 H5          0.4365   -3.3977   -2.3890 H         1 <0>         0.1411
     31 H6          0.6822   -5.4556   -1.0939 H         1 <0>         0.1234
     32 H7          0.5782   -5.4025    1.3619 H         1 <0>         0.1266
     33 H8          0.2263   -3.2846    2.5501 H         1 <0>         0.1194
     34 H9         -1.2317   -0.3461    2.8020 H         1 <0>         0.0726
     35 H10         0.4024   -0.9579    3.1543 H         1 <0>         0.0842
     36 H11         0.1842    0.7037    2.5543 H         1 <0>         0.0854
     37 H12        -1.7779   -0.8969   -3.5438 H         1 <0>         0.4167
     38 H13         1.7506    2.2189   -1.8752 H         1 <0>         0.1213
     39 H14         3.9487    3.3277   -2.1005 H         1 <0>         0.1220
     40 H15         5.7739    2.2920   -3.3277 H         1 <0>         0.1236
     41 H16         5.5121    0.0842   -4.4069 H         1 <0>         0.1355
     42 H17        -2.1623   -3.2966   -3.8328 H         1 <0>         0.4144
     43 H18        -0.8775   -4.2303   -4.3807 H         1 <0>         0.4270
@<TRIPOS>BOND
     1    1    2 1
     2    1   27 1
     3    1   28 1
     4    1   29 1
     5    2   10 1
     6    2    3 2
     7    3    4 1
     8    3   12 1
     9    4    9 ar
    10    4    5 ar
    11    5    6 ar
    12    5   30 1
    13    6    7 ar
    14    6   31 1
    15    7    8 ar
    16    7   32 1
    17    8    9 ar
    18    8   33 1
    19    9   10 1
    20   10   11 1
    21   11   34 1
    22   11   35 1
    23   11   36 1
    24   12   13 1
    25   12   18 1
    26   12   14 1
    27   14   15 1
    28   14   37 1
    29   15   16 2
    30   15   26 1
    31   16   17 1
    32   17   25 2
    33   17   18 1
    34   18   19 1
    35   19   24 ar
    36   19   20 ar
    37   20   21 ar
    38   20   38 1
    39   21   22 ar
    40   21   39 1
    41   22   23 ar
    42   22   40 1
    43   23   24 ar
    44   23   41 1
    45   24   25 1
    46   26   42 1
    47   26   43 1
