@<TRIPOS>MOLECULE
3M2W-L8I
 51 56 0 0 0
SMALL
SF_CHARGES


@<TRIPOS>ATOM
1    F        35.6060    3.4560   14.9520  F          1 SUBUNIT     -0.1777
2    C        35.4680    3.8250   13.6740  C.2        1 SUBUNIT      0.1495
3    C        36.3700    4.6900   13.0540  C.2        1 SUBUNIT     -0.0328
4    C        36.2080    5.0540   11.7280  C.2        1 SUBUNIT     -0.0976
5    C        35.1280    4.5510   11.0110  C.2        1 SUBUNIT     -0.0939
6    C        34.2310    3.6720   11.6260  C.2        1 SUBUNIT     -0.0933
7    C        34.3920    3.3180   12.9550  C.2        1 SUBUNIT     -0.1059
8    C        37.5130    5.2770   13.7690  C.2        1 SUBUNIT      0.2736
9    N        38.5820    5.6040   13.0200  N.2        1 SUBUNIT     -0.4968
10   C        39.6670    6.1750   13.5520  C.2        1 SUBUNIT      0.1788
11   C        39.7140    6.4530   14.9180  C.2        1 SUBUNIT     -0.0541
12   C        38.6120    6.1180   15.7060  C.2        1 SUBUNIT     -0.0159
13   C        37.4800    5.5440   15.1400  C.2        1 SUBUNIT     -0.1248
14   C        38.6800    6.4310   17.1550  C.2        1 SUBUNIT      0.0922
15   N        37.9170    6.0220   18.1170  N.pl3      1 SUBUNIT     -0.3177
16   C        38.2930    6.5310   19.2680  C.2        1 SUBUNIT      0.0591
17   C        39.3690    7.3240   19.0810  C.2        1 SUBUNIT     -0.0470
18   C        39.6180    7.2520   17.6360  C.2        1 SUBUNIT     -0.0495
19   C        40.6590    7.9360   16.8000  C.3        1 SUBUNIT     -0.0276
20   C        40.9670    7.0940   15.5330  C.3        1 SUBUNIT     -0.0277
21   C        40.0070    8.0830   20.1680  C.2        1 SUBUNIT      0.6693
22   N        39.4130    8.0790   21.3760  N.am       1 SUBUNIT     -0.5732
23   C        38.1820    7.3490   21.6740  C.3        1 SUBUNIT      0.1483
24   C        37.7020    6.3020   20.6390  C.3        1 SUBUNIT      0.0086
25   C        37.9850    4.8390   21.0540  C.3        1 SUBUNIT      0.1594
26   N        36.5710    4.6780   21.4640  N.4        1 SUBUNIT     -0.3231
27   C        36.2040    5.9810   20.8300  C.3        1 SUBUNIT      0.1594
28   C        36.3460    4.5230   22.9320  C.3        1 SUBUNIT      0.1255
29   O        41.0140    8.7550   19.9850  O.2        1 SUBUNIT     -0.5447
30   H        36.9117    5.7194   11.2592  H          1 SUBUNIT      0.1183
31   H        34.9852    4.8395    9.9843  H          1 SUBUNIT      0.1180
32   H        33.4073    3.2647   11.0662  H          1 SUBUNIT      0.1171
33   H        33.6878    2.6548   13.4262  H          1 SUBUNIT      0.1160
34   H        40.4948    6.4124   12.9069  H          1 SUBUNIT      0.0871
35   H        36.6140    5.3153   15.7362  H          1 SUBUNIT      0.1137
36   H        37.1377    5.3948   17.9925  H          1 SUBUNIT      0.3185
37   H        40.2849    8.9222   16.5059  H          1 SUBUNIT      0.0485
38   H        41.5702    8.0535   17.3957  H          1 SUBUNIT      0.0485
39   H        41.6668    6.2963   15.8031  H          1 SUBUNIT      0.0473
40   H        41.4269    7.7449   14.7821  H          1 SUBUNIT      0.0473
41   H        39.8743    8.6223   22.0888  H          1 SUBUNIT      0.3256
42   H        38.3456    6.8377   22.6284  H          1 SUBUNIT      0.0349
43   H        37.3943    8.1004   21.7922  H          1 SUBUNIT      0.0349
44   H        38.2814    4.1840   20.2281  H          1 SUBUNIT      0.0368
45   H        38.6975    4.7327   21.8786  H          1 SUBUNIT      0.0368
46   H        36.0517    3.8559   21.1984  H          1 SUBUNIT      0.3339
47   H        35.6764    6.6674   21.5004  H          1 SUBUNIT      0.0368
48   H        35.6412    5.8771   19.8965  H          1 SUBUNIT      0.0368
49   H        36.8667    3.6404   23.3178  H          1 SUBUNIT      0.0410
50   H        35.2801    4.4095   23.1558  H          1 SUBUNIT      0.0410
51   H        36.7137    5.3969   23.4798  H          1 SUBUNIT      0.0410
@<TRIPOS>BOND
     1    1    2 1
     2    2    3 2
     3    2    7 1
     4    3    4 1
     5    3    8 1
     6    4    5 2
     7    5    6 1
     8    6    7 2
     9    8    9 1
    10    8   13 2
    11    9   10 2
    12   10   11 1
    13   11   12 2
    14   11   20 1
    15   12   13 1
    16   12   14 1
    17   14   15 1
    18   14   18 2
    19   15   16 1
    20   16   17 2
    21   16   24 1
    22   17   18 1
    23   17   21 1
    24   18   19 1
    25   19   20 1
    26   21   22 1
    27   21   29 2
    28   22   23 1
    29   23   24 1
    30   24   25 1
    31   24   27 1
    32   25   26 1
    33   26   27 1
    34   26   28 1
    35    4   30 1
    36    5   31 1
    37    6   32 1
    38    7   33 1
    39   10   34 1
    40   13   35 1
    41   15   36 1
    42   19   37 1
    43   19   38 1
    44   20   39 1
    45   20   40 1
    46   22   41 1
    47   23   42 1
    48   23   43 1
    49   25   44 1
    50   25   45 1
    51   26   46 1
    52   27   47 1
    53   27   48 1
    54   28   49 1
    55   28   50 1
    56   28   51 1
