@<TRIPOS>MOLECULE
CHEMBL108441
   61    61     0     0     0
SMALL
USER_CHARGES

@<TRIPOS>ATOM
      1 C1         -0.0187    1.5258    0.0104 C.3       1 <0>        -0.1538
      2 C2          0.0021   -0.0041    0.0020 C.3       1 <0>        -0.1262
      3 C3          0.7421   -0.5109    1.2415 C.3       1 <0>        -0.1212
      4 C4          0.7628   -2.0407    1.2331 C.3       1 <0>        -0.1212
      5 C5          1.5028   -2.5476    2.4727 C.3       1 <0>        -0.1205
      6 C6          1.5236   -4.0774    2.4642 C.3       1 <0>        -0.1207
      7 C7          2.2636   -4.5842    3.7038 C.3       1 <0>        -0.1202
      8 C8          2.2843   -6.1141    3.6954 C.3       1 <0>        -0.1208
      9 C9          3.0243   -6.6209    4.9349 C.3       1 <0>        -0.1199
     10 C10         3.0450   -8.1508    4.9265 C.3       1 <0>        -0.1210
     11 C11         3.7850   -8.6576    6.1660 C.3       1 <0>        -0.1191
     12 C12         3.8058  -10.1874    6.1576 C.3       1 <0>        -0.1208
     13 C13         4.5458  -10.6943    7.3971 C.3       1 <0>        -0.1174
     14 C14         4.5665  -12.2241    7.3887 C.3       1 <0>        -0.1095
     15 C15         5.3065  -12.7309    8.6282 C.3       1 <0>        -0.1565
     16 C16         5.3270  -14.2378    8.6199 C.2       1 <0>         0.4178
     17 O1          4.8007  -14.8472    7.7108 O.2       1 <0>        -0.4659
     18 C17         5.9587  -14.9419    9.6705 C.2       1 <0>        -0.3679
     19 C18         6.5986  -14.4040   10.7820 C.2       1 <0>         0.2245
     20 O2          7.0569  -15.4169   11.5250 O.3       1 <0>        -0.1823
     21 C19         6.7551  -16.6043   10.9651 C.2       1 <0>        -0.2777
     22 C20         6.0747  -16.4052    9.8254 C.2       1 <0>         0.2741
     23 O3          5.5931  -17.3587    8.9820 O.3       1 <0>        -0.6899
     24 C21         7.1201  -17.9509   11.5348 C.3       1 <0>         0.2061
     25 O4          8.3973  -18.3499   11.0333 O.3       1 <0>        -0.5751
     26 O5          6.7339  -13.0890   11.0616 O.3       1 <0>        -0.4393
     27 H1          1.0039    1.9031    0.0027 H         1 <0>         0.0531
     28 H2         -0.5459    1.8868   -0.8726 H         1 <0>         0.0527
     29 H3         -0.5289    1.8773    0.9072 H         1 <0>         0.0531
     30 H4         -1.0205   -0.3814    0.0098 H         1 <0>         0.0602
     31 H5          0.5123   -0.3556   -0.8948 H         1 <0>         0.0602
     32 H6          1.7647   -0.1336    1.2338 H         1 <0>         0.0604
     33 H7          0.2319   -0.1594    2.1383 H         1 <0>         0.0604
     34 H8         -0.2598   -2.4180    1.2409 H         1 <0>         0.0604
     35 H9          1.2730   -2.3923    0.3363 H         1 <0>         0.0604
     36 H10         2.5254   -2.1703    2.4649 H         1 <0>         0.0602
     37 H11         0.9926   -2.1961    3.3695 H         1 <0>         0.0602
     38 H12         0.5010   -4.4547    2.4720 H         1 <0>         0.0602
     39 H13         2.0337   -4.4289    1.5675 H         1 <0>         0.0603
     40 H14         3.2861   -4.2070    3.6960 H         1 <0>         0.0600
     41 H15         1.7534   -4.2327    4.6006 H         1 <0>         0.0599
     42 H16         1.2617   -6.4914    3.7031 H         1 <0>         0.0602
     43 H17         2.7945   -6.4656    2.7986 H         1 <0>         0.0602
     44 H18         4.0469   -6.2436    4.9271 H         1 <0>         0.0598
     45 H19         2.5141   -6.2694    5.8317 H         1 <0>         0.0596
     46 H20         2.0224   -8.5280    4.9342 H         1 <0>         0.0602
     47 H21         3.5552   -8.5023    4.0297 H         1 <0>         0.0603
     48 H22         4.8076   -8.2803    6.1583 H         1 <0>         0.0596
     49 H23         3.2748   -8.3061    7.0628 H         1 <0>         0.0592
     50 H24         2.7832  -10.5647    6.1653 H         1 <0>         0.0606
     51 H25         4.3160  -10.5389    5.2608 H         1 <0>         0.0609
     52 H26         5.5684  -10.3170    7.3894 H         1 <0>         0.0596
     53 H27         4.0356  -10.3427    8.2939 H         1 <0>         0.0586
     54 H28         3.5439  -12.6014    7.3964 H         1 <0>         0.0639
     55 H29         5.0767  -12.5756    6.4919 H         1 <0>         0.0647
     56 H30         6.3291  -12.3537    8.6205 H         1 <0>         0.0895
     57 H31         4.7963  -12.3794    9.5250 H         1 <0>         0.0803
     58 H32         7.1607  -17.8865   12.6221 H         1 <0>         0.0322
     59 H33         6.3693  -18.6849   11.2420 H         1 <0>         0.0647
     60 H34         8.6967  -19.2098   11.3590 H         1 <0>         0.3603
     61 H35         6.0113  -12.7227   11.5896 H         1 <0>         0.3882
@<TRIPOS>BOND
     1    1    2 1
     2    1   27 1
     3    1   28 1
     4    1   29 1
     5    2    3 1
     6    2   30 1
     7    2   31 1
     8    3    4 1
     9    3   32 1
    10    3   33 1
    11    4    5 1
    12    4   34 1
    13    4   35 1
    14    5    6 1
    15    5   36 1
    16    5   37 1
    17    6    7 1
    18    6   38 1
    19    6   39 1
    20    7    8 1
    21    7   40 1
    22    7   41 1
    23    8    9 1
    24    8   42 1
    25    8   43 1
    26    9   10 1
    27    9   44 1
    28    9   45 1
    29   10   11 1
    30   10   46 1
    31   10   47 1
    32   11   12 1
    33   11   48 1
    34   11   49 1
    35   12   13 1
    36   12   50 1
    37   12   51 1
    38   13   14 1
    39   13   52 1
    40   13   53 1
    41   14   15 1
    42   14   54 1
    43   14   55 1
    44   15   16 1
    45   15   56 1
    46   15   57 1
    47   16   17 2
    48   16   18 1
    49   18   22 1
    50   18   19 2
    51   19   20 1
    52   19   26 1
    53   20   21 1
    54   21   22 2
    55   21   24 1
    56   22   23 1
    57   24   25 1
    58   24   58 1
    59   24   59 1
    60   25   60 1
    61   26   61 1
@<TRIPOS>MOLECULE
CHEMBL108441__1
   61    61     0     0     0
SMALL
USER_CHARGES

@<TRIPOS>ATOM
      1 C1         -0.0187    1.5258    0.0104 C.3       1 <0>        -0.1538
      2 C2          0.0021   -0.0041    0.0020 C.3       1 <0>        -0.1262
      3 C3          0.7182   -0.4975   -1.2568 C.3       1 <0>        -0.1212
      4 C4          0.7390   -2.0273   -1.2652 C.3       1 <0>        -0.1212
      5 C5          1.4551   -2.5207   -2.5240 C.3       1 <0>        -0.1205
      6 C6          1.4758   -4.0506   -2.5324 C.3       1 <0>        -0.1206
      7 C7          2.1920   -4.5440   -3.7912 C.3       1 <0>        -0.1202
      8 C8          2.2127   -6.0738   -3.7996 C.3       1 <0>        -0.1206
      9 C9          2.9289   -6.5673   -5.0584 C.3       1 <0>        -0.1199
     10 C10         2.9496   -8.0971   -5.0668 C.3       1 <0>        -0.1206
     11 C11         3.6658   -8.5905   -6.3257 C.3       1 <0>        -0.1190
     12 C12         3.6865  -10.1203   -6.3341 C.3       1 <0>        -0.1198
     13 C13         4.4026  -10.6138   -7.5929 C.3       1 <0>        -0.1151
     14 C14         4.4234  -12.1436   -7.6013 C.3       1 <0>        -0.0988
     15 C15         5.1395  -12.6370   -8.8601 C.3       1 <0>        -0.1313
     16 C16         5.1600  -14.1439   -8.8684 C.2       1 <0>         0.3800
     17 O1          6.1266  -14.8049   -8.2150 O.3       1 <0>        -0.6134
     18 C17         4.1845  -14.8431   -9.5480 C.2       1 <0>        -0.5686
     19 C18         4.0600  -16.3036   -9.6472 C.2       1 <0>         0.5240
     20 O2          2.9918  -16.6346  -10.3868 O.3       1 <0>        -0.3357
     21 C19         2.3105  -15.4676  -10.8460 C.3       1 <0>         0.0414
     22 H1          1.2892  -15.4599  -10.4651 H         1 <0>         0.1126
     23 C20         3.0652  -14.2725  -10.3074 C.2       1 <0>         0.3875
     24 O3          2.8037  -13.0984  -10.4693 O.2       1 <0>        -0.4956
     25 C21         2.2962  -15.4404  -12.3757 C.3       1 <0>         0.0818
     26 O4          1.4968  -16.5196  -12.8638 O.3       1 <0>        -0.5648
     27 O5          4.8189  -17.1004   -9.1306 O.2       1 <0>        -0.4936
     28 H2          1.0039    1.9031    0.0027 H         1 <0>         0.0531
     29 H3         -0.5459    1.8868   -0.8726 H         1 <0>         0.0531
     30 H4         -0.5289    1.8773    0.9072 H         1 <0>         0.0526
     31 H5          0.5293   -0.3651    0.8851 H         1 <0>         0.0601
     32 H6         -1.0205   -0.3814    0.0098 H         1 <0>         0.0602
     33 H7          0.1910   -0.1364   -2.1398 H         1 <0>         0.0604
     34 H8          1.7408   -0.1202   -1.2645 H         1 <0>         0.0603
     35 H9          1.2661   -2.3884   -0.3821 H         1 <0>         0.0604
     36 H10        -0.2836   -2.4046   -1.2575 H         1 <0>         0.0604
     37 H11         0.9279   -2.1597   -3.4071 H         1 <0>         0.0602
     38 H12         2.4777   -2.1435   -2.5317 H         1 <0>         0.0601
     39 H13         2.0030   -4.4117   -1.6494 H         1 <0>         0.0601
     40 H14         0.4533   -4.4279   -2.5247 H         1 <0>         0.0603
     41 H15         1.6648   -4.1829   -4.6743 H         1 <0>         0.0600
     42 H16         3.2146   -4.1667   -3.7990 H         1 <0>         0.0599
     43 H17         2.7399   -6.4349   -2.9166 H         1 <0>         0.0599
     44 H18         1.1901   -6.4511   -3.7919 H         1 <0>         0.0601
     45 H19         2.4017   -6.2062   -5.9415 H         1 <0>         0.0599
     46 H20         3.9515   -6.1900   -5.0662 H         1 <0>         0.0595
     47 H21         3.4768   -8.4582   -4.1838 H         1 <0>         0.0597
     48 H22         1.9270   -8.4744   -5.0591 H         1 <0>         0.0601
     49 H23         3.1386   -8.2294   -7.2087 H         1 <0>         0.0600
     50 H24         4.6884   -8.2132   -6.3334 H         1 <0>         0.0590
     51 H25         4.2137  -10.4814   -5.4510 H         1 <0>         0.0592
     52 H26         2.6639  -10.4976   -6.3263 H         1 <0>         0.0602
     53 H27         3.8755  -10.2527   -8.4759 H         1 <0>         0.0624
     54 H28         5.4252  -10.2365   -7.6006 H         1 <0>         0.0574
     55 H29         4.9506  -12.5047   -6.7182 H         1 <0>         0.0588
     56 H30         3.4008  -12.5209   -7.5935 H         1 <0>         0.0609
     57 H31         4.6123  -12.2759   -9.7431 H         1 <0>         0.0898
     58 H32         6.1621  -12.2597   -8.8678 H         1 <0>         0.0657
     59 H33         1.8775  -14.4941  -12.7183 H         1 <0>         0.0676
     60 H34         3.3145  -15.5440  -12.7504 H         1 <0>         0.0555
     61 H35         1.4428  -16.5641  -13.8283 H         1 <0>         0.3761
@<TRIPOS>BOND
     1    1    2 1
     2    1   28 1
     3    1   29 1
     4    1   30 1
     5    2    3 1
     6    2   31 1
     7    2   32 1
     8    3    4 1
     9    3   33 1
    10    3   34 1
    11    4    5 1
    12    4   35 1
    13    4   36 1
    14    5    6 1
    15    5   37 1
    16    5   38 1
    17    6    7 1
    18    6   39 1
    19    6   40 1
    20    7    8 1
    21    7   41 1
    22    7   42 1
    23    8    9 1
    24    8   43 1
    25    8   44 1
    26    9   10 1
    27    9   45 1
    28    9   46 1
    29   10   11 1
    30   10   47 1
    31   10   48 1
    32   11   12 1
    33   11   49 1
    34   11   50 1
    35   12   13 1
    36   12   51 1
    37   12   52 1
    38   13   14 1
    39   13   53 1
    40   13   54 1
    41   14   15 1
    42   14   55 1
    43   14   56 1
    44   15   16 1
    45   15   57 1
    46   15   58 1
    47   16   17 1
    48   16   18 2
    49   18   23 1
    50   18   19 1
    51   19   20 1
    52   19   27 2
    53   20   21 1
    54   21   22 1
    55   21   23 1
    56   21   25 1
    57   23   24 2
    58   25   26 1
    59   25   59 1
    60   25   60 1
    61   26   61 1
@<TRIPOS>MOLECULE
CHEMBL212433
   49    52     0     0     0
SMALL
USER_CHARGES

@<TRIPOS>ATOM
      1 C1         -0.0225    1.8097    0.0120 C.3       1 <0>        -0.6728
      2 S1          0.0021   -0.0041    0.0020 S.o2      1 <0>         2.6051
      3 O1          0.8352   -0.4880    1.0465 O.2       1 <0>        -0.9579
      4 O2         -1.3147   -0.5105   -0.1678 O.2       1 <0>        -0.9526
      5 N1          0.7947   -0.4113   -1.3938 N.pl3     1 <0>        -1.0996
      6 C2          2.2072   -0.0612   -1.5629 C.3       1 <0>         0.2431
      7 C3          2.4747    0.2858   -3.0288 C.3       1 <0>        -0.0717
      8 C4          1.7086    1.5298   -3.3984 C.ar      1 <0>        -0.0983
      9 C5          0.4215    1.4278   -3.8923 C.ar      1 <0>        -0.1138
     10 C6         -0.2812    2.5689   -4.2313 C.ar      1 <0>        -0.1102
     11 C7          0.3031    3.8121   -4.0761 C.ar      1 <0>        -0.0501
     12 C8          1.5898    3.9141   -3.5814 C.ar      1 <0>        -0.1023
     13 C9          2.2909    2.7733   -3.2383 C.ar      1 <0>        -0.1111
     14 C10        -0.4626    5.0560   -4.4466 C.3       1 <0>        -0.5517
     15 H1         -1.4621    4.8145   -4.8085 H         1 <0>         0.1403
     16 C11         0.3205    5.9272   -5.4676 C.3       1 <0>        -0.1412
     17 C12         0.1475    7.3670   -5.0876 C.2       1 <0>         0.4320
     18 O3          0.4183    8.3387   -5.9836 O.3       1 <0>        -0.6584
     19 N2         -0.2582    7.6746   -3.9111 N.2       1 <0>        -0.9073
     20 S2         -0.5182    6.2582   -3.0533 S.o2      1 <0>         2.4553
     21 O4         -1.8326    6.3622   -2.5234 O.2       1 <0>        -0.9820
     22 O5          0.6125    6.1073   -2.2060 O.2       1 <0>        -0.9817
     23 C13         3.0666   -1.2313   -1.1587 C.2       1 <0>         0.2716
     24 N3          3.9213   -1.2417   -0.1004 N.pl3     1 <0>        -0.5854
     25 H2          4.0818   -0.5103    0.5162 H         1 <0>         0.4247
     26 C14         4.5175   -2.4864   -0.0664 C.ar      1 <0>         0.0529
     27 C15         5.4566   -3.0863    0.7616 C.ar      1 <0>        -0.1109
     28 C16         5.8531   -4.3837    0.5168 C.ar      1 <0>        -0.1021
     29 C17         5.3202   -5.0924   -0.5508 C.ar      1 <0>        -0.1305
     30 C18         4.3952   -4.5184   -1.3759 C.ar      1 <0>        -0.0626
     31 C19         3.9780   -3.2045   -1.1469 C.ar      1 <0>         0.0452
     32 N4          3.0951   -2.3807   -1.7678 N.2       1 <0>        -0.4721
     33 H3          1.0001    2.1870    0.0043 H         1 <0>         0.1298
     34 H4         -0.5497    2.1708   -0.8711 H         1 <0>         0.1359
     35 H5         -0.5327    2.1613    0.9088 H         1 <0>         0.1342
     36 H6          0.3237   -0.8815   -2.0994 H         1 <0>         0.4265
     37 H7          2.4459    0.7984   -0.9366 H         1 <0>         0.1034
     38 H8          3.5411    0.4597   -3.1722 H         1 <0>         0.0911
     39 H9          2.1529   -0.5407   -3.6624 H         1 <0>         0.0984
     40 H10        -0.0349    0.4565   -4.0136 H         1 <0>         0.1252
     41 H11        -1.2865    2.4891   -4.6178 H         1 <0>         0.1264
     42 H12         2.0464    4.8854   -3.4604 H         1 <0>         0.1401
     43 H13         3.2949    2.8532   -2.8483 H         1 <0>         0.1254
     44 H14         1.3780    5.6643   -5.4405 H         1 <0>         0.1040
     45 H15        -0.0731    5.7617   -6.4705 H         1 <0>         0.1068
     46 H16         5.8749   -2.5390    1.5933 H         1 <0>         0.1232
     47 H17         6.5836   -4.8517    1.1600 H         1 <0>         0.1291
     48 H18         5.6404   -6.1079   -0.7313 H         1 <0>         0.1282
     49 H19         3.9873   -5.0789   -2.2041 H         1 <0>         0.1285
@<TRIPOS>BOND
     1    1    2 1
     2    1   33 1
     3    1   34 1
     4    1   35 1
     5    2    3 2
     6    2    4 2
     7    2    5 1
     8    5    6 1
     9    5   36 1
    10    6    7 1
    11    6   23 1
    12    6   37 1
    13    7    8 1
    14    7   38 1
    15    7   39 1
    16    8   13 ar
    17    8    9 ar
    18    9   10 ar
    19    9   40 1
    20   10   11 ar
    21   10   41 1
    22   11   12 ar
    23   11   14 1
    24   12   13 ar
    25   12   42 1
    26   13   43 1
    27   14   15 1
    28   14   20 1
    29   14   16 1
    30   16   17 1
    31   16   44 1
    32   16   45 1
    33   17   18 1
    34   17   19 2
    35   19   20 1
    36   20   21 2
    37   20   22 2
    38   23   32 2
    39   23   24 1
    40   24   25 1
    41   24   26 1
    42   26   31 ar
    43   26   27 ar
    44   27   28 ar
    45   27   46 1
    46   28   29 ar
    47   28   47 1
    48   29   30 ar
    49   29   48 1
    50   30   31 ar
    51   30   49 1
    52   31   32 1
@<TRIPOS>MOLECULE
CHEMBL212433__1
   49    52     0     0     0
SMALL
USER_CHARGES

@<TRIPOS>ATOM
      1 C1         -0.3499    2.0988   -1.2532 C.3       1 <0>        -0.6829
      2 S1         -0.2140    0.4512   -0.5066 S.o2      1 <0>         2.5981
      3 O1          0.4751    0.5311    0.7335 O.2       1 <0>        -0.9191
      4 O2         -1.4554   -0.2335   -0.6027 O.2       1 <0>        -0.9439
      5 N1          0.8085   -0.3855   -1.5051 N.pl3     1 <0>        -1.1185
      6 C2          2.2069    0.0306   -1.6365 C.3       1 <0>         0.2383
      7 C3          3.1229   -1.1581   -1.3385 C.3       1 <0>        -0.0699
      8 C4          2.9749   -1.5562    0.1074 C.ar      1 <0>        -0.0933
      9 C5          3.8299   -1.0330    1.0593 C.ar      1 <0>        -0.1093
     10 C6          3.6942   -1.3982    2.3856 C.ar      1 <0>        -0.1057
     11 C7          2.7031   -2.2862    2.7601 C.ar      1 <0>        -0.0473
     12 C8          1.8475   -2.8086    1.8083 C.ar      1 <0>        -0.1009
     13 C9          1.9806   -2.4401    0.4826 C.ar      1 <0>        -0.1040
     14 C10         2.5557   -2.6850    4.2059 C.3       1 <0>        -0.5499
     15 H1          3.2920   -2.1830    4.8336 H         1 <0>         0.1389
     16 C11         2.6102   -4.2279    4.3822 C.3       1 <0>        -0.1418
     17 C12         1.5845   -4.6212    5.4022 C.2       1 <0>         0.4323
     18 O3          1.6543   -5.8296    5.9983 O.3       1 <0>        -0.6627
     19 N2          0.6412   -3.8089    5.7082 N.2       1 <0>        -0.9109
     20 S2          0.8412   -2.4046    4.8152 S.o2      1 <0>         2.4584
     21 O4          0.8033   -1.3394    5.7549 O.2       1 <0>        -0.9836
     22 O5         -0.0967   -2.4874    3.7509 O.2       1 <0>        -0.9772
     23 C13         2.4564    0.5173   -3.0408 C.2       1 <0>         0.2717
     24 N3          1.5005    0.6564   -3.9987 N.pl3     1 <0>        -0.5930
     25 H2          0.5550    0.4635   -3.8997 H         1 <0>         0.4208
     26 C14         2.1254    1.1235   -5.1376 C.ar      1 <0>         0.0475
     27 C15         1.6893    1.4523   -6.4140 C.ar      1 <0>        -0.1125
     28 C16         2.5953    1.9033   -7.3500 C.ar      1 <0>        -0.1003
     29 C17         3.9384    2.0301   -7.0247 C.ar      1 <0>        -0.1281
     30 C18         4.3855    1.7112   -5.7740 C.ar      1 <0>        -0.0618
     31 C19         3.4853    1.2524   -4.8087 C.ar      1 <0>         0.0489
     32 N4          3.6164    0.8710   -3.5121 N.2       1 <0>        -0.4755
     33 H3          0.6368    2.5599   -1.2980 H         1 <0>         0.1265
     34 H4         -0.7548    2.0087   -2.2612 H         1 <0>         0.1221
     35 H5         -1.0131    2.7179   -0.6492 H         1 <0>         0.1350
     36 H6          0.4814   -1.1511   -2.0029 H         1 <0>         0.4214
     37 H7          2.4145    0.8351   -0.9310 H         1 <0>         0.1265
     38 H8          2.8476   -1.9978   -1.9766 H         1 <0>         0.0818
     39 H9          4.1578   -0.8773   -1.5340 H         1 <0>         0.1008
     40 H10         4.6042   -0.3393    0.7668 H         1 <0>         0.1226
     41 H11         4.3626   -0.9900    3.1292 H         1 <0>         0.1228
     42 H12         1.0735   -3.5026    2.1008 H         1 <0>         0.1366
     43 H13         1.3098   -2.8455   -0.2604 H         1 <0>         0.1183
     44 H14         2.3896   -4.7147    3.4322 H         1 <0>         0.1034
     45 H15         3.6018   -4.5241    4.7247 H         1 <0>         0.1056
     46 H16         0.6452    1.3548   -6.6725 H         1 <0>         0.1230
     47 H17         2.2575    2.1595   -8.3433 H         1 <0>         0.1300
     48 H18         4.6373    2.3840   -7.7681 H         1 <0>         0.1296
     49 H19         5.4330    1.8133   -5.5316 H         1 <0>         0.1306
@<TRIPOS>BOND
     1    1    2 1
     2    1   33 1
     3    1   34 1
     4    1   35 1
     5    2    3 2
     6    2    4 2
     7    2    5 1
     8    5    6 1
     9    5   36 1
    10    6    7 1
    11    6   23 1
    12    6   37 1
    13    7    8 1
    14    7   38 1
    15    7   39 1
    16    8   13 ar
    17    8    9 ar
    18    9   10 ar
    19    9   40 1
    20   10   11 ar
    21   10   41 1
    22   11   12 ar
    23   11   14 1
    24   12   13 ar
    25   12   42 1
    26   13   43 1
    27   14   15 1
    28   14   20 1
    29   14   16 1
    30   16   17 1
    31   16   44 1
    32   16   45 1
    33   17   18 1
    34   17   19 2
    35   19   20 1
    36   20   21 2
    37   20   22 2
    38   23   32 2
    39   23   24 1
    40   24   25 1
    41   24   26 1
    42   26   31 ar
    43   26   27 ar
    44   27   28 ar
    45   27   46 1
    46   28   29 ar
    47   28   47 1
    48   29   30 ar
    49   29   48 1
    50   30   31 ar
    51   30   49 1
    52   31   32 1
@<TRIPOS>MOLECULE
CHEMBL214912
   57    59     0     0     0
SMALL
USER_CHARGES

@<TRIPOS>ATOM
      1 C1         -0.0989    1.5782   -0.1190 C.3       1 <0>        -0.1482
      2 C2         -0.0538    0.0483   -0.0709 C.3       1 <0>        -0.0516
      3 C3          0.5666   -0.4956   -1.3528 C.3       1 <0>        -0.1130
      4 C4          2.0707   -0.2343   -1.3807 C.3       1 <0>         0.1560
      5 C5          2.7192   -0.9576   -0.2025 C.3       1 <0>        -0.1229
      6 C6          2.1772   -0.4297    1.1210 C.3       1 <0>        -0.0542
      7 C7          0.6609   -0.4384    1.1761 C.3       1 <0>        -0.0939
      8 C8          2.7310    0.9720    1.3919 C.3       1 <0>        -0.1479
      9 C9          2.6999   -1.3547    2.2426 C.3       1 <0>        -0.1453
     10 N1          2.6271   -0.7620   -2.6337 N.pl3     1 <0>        -0.7474
     11 C10         3.8060   -0.2282   -3.1524 C.ar      1 <0>         0.2173
     12 C11         4.4572    0.8003   -2.4793 C.ar      1 <0>        -0.1983
     13 C12         5.6218    1.3302   -2.9893 C.ar      1 <0>        -0.0497
     14 C13         6.1492    0.8333   -4.1837 C.ar      1 <0>        -0.0467
     15 C14         5.4929   -0.2000   -4.8571 C.ar      1 <0>        -0.0379
     16 C15         4.3315   -0.7290   -4.3390 C.ar      1 <0>        -0.1938
     17 C16         7.3972    1.3994   -4.7336 C.2       1 <0>        -0.1161
     18 C17         8.5158    0.7352   -5.2104 C.2       1 <0>        -0.1233
     19 C18         9.5713    1.4731   -5.6795 C.2       1 <0>         0.1028
     20 C19         9.4698    2.8663   -5.6549 C.2       1 <0>        -0.1461
     21 S1          7.8441    3.1125   -4.9597 S.3       1 <0>         0.1260
     22 C20        10.4070    3.8291   -6.0757 C.2       1 <0>         0.4876
     23 O1         11.5790    3.4426   -6.5797 O.co2     1 <0>        -0.6376
     24 O2         10.1222    5.1272   -5.9701 O.co2     1 <0>        -0.7131
     25 O3         10.6876    0.8655   -6.1556 O.3       1 <0>        -0.2676
     26 C21        10.7140    0.5582   -7.5510 C.3       1 <0>         0.0213
     27 C22        12.0214   -0.1081   -7.8940 C.2       1 <0>         0.5129
     28 O4         12.8535   -0.3019   -7.0242 O.co2     1 <0>        -0.6725
     29 O5         12.2471   -0.4533   -9.0414 O.co2     1 <0>        -0.7095
     30 Br1         8.5852   -1.1545   -5.2134 Br        1 <0>        -0.0393
     31 C23        -1.5139   -0.4526   -0.0089 C.3       1 <0>        -0.1450
     32 H1          0.9176    1.9717   -0.1240 H         1 <0>         0.0628
     33 H2         -0.6167    1.8981   -1.0233 H         1 <0>         0.0544
     34 H3         -0.6297    1.9538    0.7558 H         1 <0>         0.0537
     35 H4          0.3858   -1.5717   -1.4164 H         1 <0>         0.0640
     36 H5          0.1006   -0.0126   -2.2156 H         1 <0>         0.0673
     37 H6          2.2728    0.8322   -1.3304 H         1 <0>         0.0837
     38 H7          2.5133   -2.0284   -0.2787 H         1 <0>         0.0619
     39 H8          3.8013   -0.8074   -0.2383 H         1 <0>         0.0702
     40 H9          0.3362    0.1774    2.0309 H         1 <0>         0.0593
     41 H10         0.3235   -1.4649    1.3959 H         1 <0>         0.0568
     42 H11         2.4298    1.6434    0.5878 H         1 <0>         0.0598
     43 H12         2.3384    1.3410    2.3395 H         1 <0>         0.0530
     44 H13         3.8191    0.9296    1.4413 H         1 <0>         0.0580
     45 H14         3.7898   -1.3414    2.2461 H         1 <0>         0.0568
     46 H15         2.3291   -1.0035    3.2055 H         1 <0>         0.0519
     47 H16         2.3495   -2.3719    2.0674 H         1 <0>         0.0513
     48 H17         2.1742   -1.4819   -3.1002 H         1 <0>         0.3949
     49 H18         4.0490    1.1840   -1.5559 H         1 <0>         0.1205
     50 H19         6.1266    2.1292   -2.4665 H         1 <0>         0.1246
     51 H20         5.8980   -0.5862   -5.7807 H         1 <0>         0.1272
     52 H21         3.8260   -1.5308   -4.8568 H         1 <0>         0.1191
     53 H22         9.8899   -0.1137   -7.7907 H         1 <0>         0.0347
     54 H23        10.6125    1.4777   -8.1274 H         1 <0>         0.0510
     55 H24        -2.0522   -0.1134   -0.8939 H         1 <0>         0.0543
     56 H25        -1.5232   -1.5419    0.0267 H         1 <0>         0.0525
     57 H26        -1.9966   -0.0557    0.8842 H         1 <0>         0.0534
@<TRIPOS>BOND
     1    1    2 1
     2    1   32 1
     3    1   33 1
     4    1   34 1
     5    2    7 1
     6    2    3 1
     7    2   31 1
     8    3    4 1
     9    3   35 1
    10    3   36 1
    11    4    5 1
    12    4   10 1
    13    4   37 1
    14    5    6 1
    15    5   38 1
    16    5   39 1
    17    6    7 1
    18    6    8 1
    19    6    9 1
    20    7   40 1
    21    7   41 1
    22    8   42 1
    23    8   43 1
    24    8   44 1
    25    9   45 1
    26    9   46 1
    27    9   47 1
    28   10   11 1
    29   10   48 1
    30   11   16 ar
    31   11   12 ar
    32   12   13 ar
    33   12   49 1
    34   13   14 ar
    35   13   50 1
    36   14   15 ar
    37   14   17 1
    38   15   16 ar
    39   15   51 1
    40   16   52 1
    41   17   21 1
    42   17   18 2
    43   18   19 1
    44   18   30 1
    45   19   20 2
    46   19   25 1
    47   20   21 1
    48   20   22 1
    49   22   23 2
    50   22   24 1
    51   25   26 1
    52   26   27 1
    53   26   53 1
    54   26   54 1
    55   27   28 2
    56   27   29 1
    57   31   55 1
    58   31   56 1
    59   31   57 1
@<TRIPOS>MOLECULE
CHEMBL280992
   64    69     0     0     0
SMALL
USER_CHARGES

@<TRIPOS>ATOM
      1 C1          7.3205   -2.1010   -2.4249 C.ar      1 <0>        -0.1173
      2 C2          6.2433   -2.9493   -2.2491 C.ar      1 <0>        -0.1184
      3 C3          5.1545   -2.5383   -1.5031 C.ar      1 <0>        -0.1017
      4 C4          5.1431   -1.2792   -0.9326 C.ar      1 <0>        -0.0885
      5 C5          6.2207   -0.4313   -1.1076 C.ar      1 <0>        -0.1079
      6 C6          7.3089   -0.8417   -1.8548 C.ar      1 <0>        -0.1210
      7 C7          3.9556   -0.8308   -0.1202 C.3       1 <0>        -0.0059
      8 C8          4.2065   -1.1192    1.3375 C.2       1 <0>         0.0586
      9 C9          3.7946   -2.2299    1.9920 C.2       1 <0>        -0.1326
     10 C10         4.2636   -2.0769    3.3814 C.ar      1 <0>        -0.1118
     11 C11         4.1665   -2.8561    4.5311 C.ar      1 <0>        -0.0686
     12 C12         4.7318   -2.4102    5.7058 C.ar      1 <0>        -0.1347
     13 C13         5.3942   -1.1918    5.7439 C.ar      1 <0>        -0.0945
     14 C14         5.4963   -0.4116    4.6124 C.ar      1 <0>        -0.1076
     15 C15         4.9331   -0.8441    3.4178 C.ar      1 <0>         0.0529
     16 O1          4.8770   -0.3147    2.1786 O.3       1 <0>        -0.1870
     17 C16         3.0290   -3.3664    1.4280 C.ar      1 <0>        -0.0210
     18 C17         1.7175   -3.1762    0.9918 C.ar      1 <0>        -0.1021
     19 C18         1.0062   -4.2325    0.4673 C.ar      1 <0>        -0.1142
     20 C19         1.5970   -5.4924    0.3720 C.ar      1 <0>        -0.0228
     21 C20         2.9081   -5.6828    0.8079 C.ar      1 <0>        -0.1148
     22 C21         3.6215   -4.6255    1.3277 C.ar      1 <0>        -0.0949
     23 C22         0.8309   -6.6296   -0.1924 C.ar      1 <0>        -0.0989
     24 C23        -0.4780   -6.4398   -0.6335 C.ar      1 <0>        -0.0664
     25 C24        -1.1878   -7.4995   -1.1578 C.ar      1 <0>        -0.1526
     26 C25        -0.6006   -8.7544   -1.2463 C.ar      1 <0>         0.1444
     27 C26         0.7027   -8.9467   -0.8079 C.ar      1 <0>        -0.2104
     28 C27         1.4199   -7.8897   -0.2883 C.ar      1 <0>        -0.0648
     29 O2         -1.3029   -9.7967   -1.7626 O.3       1 <0>        -0.3040
     30 C28        -0.6379  -11.0600   -1.8242 C.3       1 <0>         0.1099
     31 C29        -1.5653  -12.0873   -2.4205 C.ar      1 <0>        -0.1172
     32 C30        -2.4010  -12.8210   -1.5970 C.ar      1 <0>        -0.1120
     33 C31        -3.2521  -13.7632   -2.1357 C.ar      1 <0>        -0.0901
     34 C32        -3.2693  -13.9757   -3.5165 C.ar      1 <0>        -0.1187
     35 C33        -2.4230  -13.2309   -4.3418 C.ar      1 <0>        -0.0901
     36 C34        -1.5810  -12.2885   -3.7896 C.ar      1 <0>        -0.1121
     37 C35        -4.1766  -14.9822   -4.1002 C.2       1 <0>         0.5178
     38 O3         -4.9158  -15.6327   -3.3751 O.co2     1 <0>        -0.6849
     39 O4         -4.1893  -15.1658   -5.3092 O.co2     1 <0>        -0.6850
     40 H1          8.1731   -2.4238   -3.0039 H         1 <0>         0.1219
     41 H2          6.2522   -3.9329   -2.6948 H         1 <0>         0.1237
     42 H3          4.3125   -3.2007   -1.3664 H         1 <0>         0.1240
     43 H4          6.2117    0.5525   -0.6622 H         1 <0>         0.1220
     44 H5          8.1507   -0.1791   -1.9918 H         1 <0>         0.1223
     45 H6          3.8046    0.2399   -0.2580 H         1 <0>         0.0964
     46 H7          3.0664   -1.3685   -0.4492 H         1 <0>         0.1091
     47 H8          3.6507   -3.8045    4.5024 H         1 <0>         0.1273
     48 H9          4.6587   -3.0111    6.6003 H         1 <0>         0.1302
     49 H10         5.8340   -0.8511    6.6696 H         1 <0>         0.1350
     50 H11         6.0144    0.5351    4.6539 H         1 <0>         0.1313
     51 H12         1.2599   -2.2007    1.0659 H         1 <0>         0.1233
     52 H13        -0.0091   -4.0854    0.1300 H         1 <0>         0.1281
     53 H14         3.3654   -6.6584    0.7341 H         1 <0>         0.1265
     54 H15         4.6383   -4.7720    1.6612 H         1 <0>         0.1215
     55 H16        -0.9356   -5.4640   -0.5642 H         1 <0>         0.1308
     56 H17        -2.2018   -7.3531   -1.4996 H         1 <0>         0.1339
     57 H18         1.1567   -9.9241   -0.8781 H         1 <0>         0.1314
     58 H19         2.4353   -8.0388    0.0480 H         1 <0>         0.1264
     59 H20         0.2536  -10.9714   -2.4450 H         1 <0>         0.0683
     60 H21        -0.3514  -11.3692   -0.8190 H         1 <0>         0.0683
     61 H22        -2.3866  -12.6556   -0.5298 H         1 <0>         0.1154
     62 H23        -3.9033  -14.3355   -1.4917 H         1 <0>         0.1293
     63 H24        -2.4311  -13.3900   -5.4100 H         1 <0>         0.1293
     64 H25        -0.9294  -11.7089   -4.4267 H         1 <0>         0.1154
@<TRIPOS>BOND
     1    1    6 ar
     2    1    2 ar
     3    1   40 1
     4    2    3 ar
     5    2   41 1
     6    3    4 ar
     7    3   42 1
     8    4    5 ar
     9    4    7 1
    10    5    6 ar
    11    5   43 1
    12    6   44 1
    13    7    8 1
    14    7   45 1
    15    7   46 1
    16    8   16 1
    17    8    9 2
    18    9   10 1
    19    9   17 1
    20   10   15 ar
    21   10   11 ar
    22   11   12 ar
    23   11   47 1
    24   12   13 ar
    25   12   48 1
    26   13   14 ar
    27   13   49 1
    28   14   15 ar
    29   14   50 1
    30   15   16 1
    31   17   22 ar
    32   17   18 ar
    33   18   19 ar
    34   18   51 1
    35   19   20 ar
    36   19   52 1
    37   20   21 ar
    38   20   23 1
    39   21   22 ar
    40   21   53 1
    41   22   54 1
    42   23   28 ar
    43   23   24 ar
    44   24   25 ar
    45   24   55 1
    46   25   26 ar
    47   25   56 1
    48   26   27 ar
    49   26   29 1
    50   27   28 ar
    51   27   57 1
    52   28   58 1
    53   29   30 1
    54   30   31 1
    55   30   59 1
    56   30   60 1
    57   31   36 ar
    58   31   32 ar
    59   32   33 ar
    60   32   61 1
    61   33   34 ar
    62   33   62 1
    63   34   35 ar
    64   34   37 1
    65   35   36 ar
    66   35   63 1
    67   36   64 1
    68   37   38 2
    69   37   39 1
@<TRIPOS>MOLECULE
CHEMBL562468
   61    65     0     0     0
SMALL
USER_CHARGES

@<TRIPOS>ATOM
      1 C1          0.0024    1.3897   -0.0378 C.ar      1 <0>        -0.1117
      2 C2          1.1917    2.0942   -0.0408 C.ar      1 <0>        -0.1173
      3 C3          2.3965    1.4165   -0.0475 C.ar      1 <0>        -0.0888
      4 C4          2.4120    0.0342   -0.0508 C.ar      1 <0>        -0.0580
      5 C5          1.2227   -0.6703   -0.0470 C.ar      1 <0>        -0.0932
      6 C6          0.0179    0.0074   -0.0416 C.ar      1 <0>        -0.1181
      7 C7          3.7254   -0.7046   -0.0592 C.3       1 <0>         0.1177
      8 S1          3.6245   -2.2310    0.9607 S.3       1 <0>        -0.2475
      9 C8          5.2538   -2.2588    1.8049 C.3       1 <0>        -0.0778
     10 C9          5.5142   -0.7912    2.2258 C.3       1 <0>        -0.0471
     11 S2          5.0219    0.2577    0.8117 S.3       1 <0>        -0.2397
     12 C10         6.9994   -0.5908    2.5340 C.3       1 <0>        -0.0819
     13 C11         7.2230    0.8259    3.0670 C.3       1 <0>        -0.1403
     14 C12         8.6859    1.0233    3.3706 C.2       1 <0>         0.5140
     15 O1          9.4722    0.1198    3.1794 O.2       1 <0>        -0.5205
     16 N1          9.1204    2.2037    3.8545 N.am      1 <0>        -0.6704
     17 C13        10.4602    2.3563    4.2279 C.ar      1 <0>         0.1339
     18 C14        11.4611    1.7094    3.5144 C.ar      1 <0>        -0.1260
     19 C15        12.7794    1.8625    3.8897 C.ar      1 <0>        -0.0977
     20 C16        13.1122    2.6600    4.9747 C.ar      1 <0>        -0.1246
     21 C17        12.1202    3.3069    5.6826 C.ar      1 <0>        -0.0419
     22 C18        10.7951    3.1586    5.3086 C.ar      1 <0>        -0.1420
     23 C19        12.4459    4.1919    6.8588 C.3       1 <0>        -0.0927
     24 C20        13.8649    3.8994    7.3494 C.3       1 <0>         0.0225
     25 H1         13.8932    2.9190    7.8250 H         1 <0>         0.0543
     26 O2         14.7472    3.9127    6.2215 O.3       1 <0>        -0.3441
     27 C21        14.5644    2.7947    5.3535 C.3       1 <0>         0.0922
     28 C22        14.2860    4.9547    8.3394 C.2       1 <0>         0.5063
     29 O3         13.7055    5.0556    9.4067 O.co2     1 <0>        -0.6914
     30 O4         15.2072    5.7076    8.0729 O.co2     1 <0>        -0.6724
     31 C23         4.1501   -1.0234   -1.4695 C.ar      1 <0>        -0.0710
     32 C24         3.7543   -2.2093   -2.0592 C.ar      1 <0>        -0.0917
     33 C25         4.1439   -2.5017   -3.3529 C.ar      1 <0>        -0.1206
     34 C26         4.9289   -1.6080   -4.0571 C.ar      1 <0>        -0.1114
     35 C27         5.3240   -0.4216   -3.4677 C.ar      1 <0>        -0.1192
     36 C28         4.9308   -0.1273   -2.1755 C.ar      1 <0>        -0.0884
     37 H2         -0.9389    1.9191   -0.0280 H         1 <0>         0.1243
     38 H3          1.1796    3.1741   -0.0382 H         1 <0>         0.1267
     39 H4          3.3257    1.9669   -0.0505 H         1 <0>         0.1295
     40 H5          1.2348   -1.7502   -0.0503 H         1 <0>         0.1229
     41 H6         -0.9113   -0.5430   -0.0390 H         1 <0>         0.1253
     42 H7          5.2142   -2.9032    2.6831 H         1 <0>         0.1295
     43 H8          6.0297   -2.5994    1.1192 H         1 <0>         0.1048
     44 H9          4.9145   -0.5423    3.1012 H         1 <0>         0.1122
     45 H10         7.3158   -1.3154    3.2842 H         1 <0>         0.0934
     46 H11         7.5817   -0.7325    1.6235 H         1 <0>         0.0884
     47 H12         6.9066    1.5505    2.3168 H         1 <0>         0.1006
     48 H13         6.6406    0.9676    3.9774 H         1 <0>         0.1006
     49 H14         8.5042    2.9476    3.9439 H         1 <0>         0.4100
     50 H15        11.2077    1.0880    2.6683 H         1 <0>         0.1352
     51 H16        13.5572    1.3582    3.3357 H         1 <0>         0.1247
     52 H17        10.0194    3.6658    5.8631 H         1 <0>         0.1250
     53 H18        12.3751    5.2368    6.5567 H         1 <0>         0.0831
     54 H19        11.7371    3.9997    7.6642 H         1 <0>         0.0859
     55 H20        14.8909    1.8868    5.8607 H         1 <0>         0.0559
     56 H21        15.1609    2.9361    4.4522 H         1 <0>         0.0974
     57 H22         3.1410   -2.9076   -1.5091 H         1 <0>         0.1295
     58 H23         3.8352   -3.4286   -3.8134 H         1 <0>         0.1250
     59 H24         5.2338   -1.8368   -5.0675 H         1 <0>         0.1236
     60 H25         5.9376    0.2765   -4.0177 H         1 <0>         0.1258
     61 H26         5.2364    0.8013   -1.7164 H         1 <0>         0.1271
@<TRIPOS>BOND
     1    1    6 ar
     2    1    2 ar
     3    1   37 1
     4    2    3 ar
     5    2   38 1
     6    3    4 ar
     7    3   39 1
     8    4    5 ar
     9    4    7 1
    10    5    6 ar
    11    5   40 1
    12    6   41 1
    13    7   11 1
    14    7    8 1
    15    7   31 1
    16    8    9 1
    17    9   10 1
    18    9   42 1
    19    9   43 1
    20   10   11 1
    21   10   12 1
    22   10   44 1
    23   12   13 1
    24   12   45 1
    25   12   46 1
    26   13   14 1
    27   13   47 1
    28   13   48 1
    29   14   15 2
    30   14   16 am
    31   16   17 1
    32   16   49 1
    33   17   22 ar
    34   17   18 ar
    35   18   19 ar
    36   18   50 1
    37   19   20 ar
    38   19   51 1
    39   20   27 1
    40   20   21 ar
    41   21   22 ar
    42   21   23 1
    43   22   52 1
    44   23   24 1
    45   23   53 1
    46   23   54 1
    47   24   25 1
    48   24   26 1
    49   24   28 1
    50   26   27 1
    51   27   55 1
    52   27   56 1
    53   28   29 2
    54   28   30 1
    55   31   36 ar
    56   31   32 ar
    57   32   33 ar
    58   32   57 1
    59   33   34 ar
    60   33   58 1
    61   34   35 ar
    62   34   59 1
    63   35   36 ar
    64   35   60 1
    65   36   61 1
@<TRIPOS>MOLECULE
CHEMBL562468__1
   61    65     0     0     0
SMALL
USER_CHARGES

@<TRIPOS>ATOM
      1 C1         -0.0042    1.3547   -0.0258 C.ar      1 <0>        -0.1114
      2 C2          1.1830    2.0630   -0.0325 C.ar      1 <0>        -0.1165
      3 C3          2.3898    1.3890   -0.0394 C.ar      1 <0>        -0.0923
      4 C4          2.4096    0.0068   -0.0393 C.ar      1 <0>        -0.0587
      5 C5          1.2225   -0.7015   -0.0317 C.ar      1 <0>        -0.0889
      6 C6          0.0156   -0.0275   -0.0262 C.ar      1 <0>        -0.1184
      7 C7          3.7253   -0.7280   -0.0478 C.3       1 <0>         0.1175
      8 S1          3.6310   -2.2487    0.9738 S.3       1 <0>        -0.2487
      9 C8          4.8537   -1.9936    2.3087 C.3       1 <0>        -0.0787
     10 C9          5.9435   -1.0505    1.7416 C.3       1 <0>        -0.0463
     11 S2          5.0230    0.2427    0.8206 S.3       1 <0>        -0.2370
     12 C10         6.7470   -0.4209    2.8813 C.3       1 <0>        -0.0800
     13 C11         7.8946    0.4070    2.2995 C.3       1 <0>        -0.1410
     14 C12         8.6861    1.0271    3.4221 C.2       1 <0>         0.5137
     15 O1          8.3639    0.8265    4.5741 O.2       1 <0>        -0.5203
     16 N1          9.7518    1.8045    3.1459 N.am      1 <0>        -0.6703
     17 C13        10.4278    2.4587    4.1818 C.ar      1 <0>         0.1337
     18 C14        10.5623    1.8478    5.4219 C.ar      1 <0>        -0.1262
     19 C15        11.2278    2.4997    6.4390 C.ar      1 <0>        -0.0977
     20 C16        11.7652    3.7613    6.2305 C.ar      1 <0>        -0.1245
     21 C17        11.6365    4.3686    4.9983 C.ar      1 <0>        -0.0417
     22 C18        10.9714    3.7175    3.9729 C.ar      1 <0>        -0.1418
     23 C19        12.2192    5.7332    4.7319 C.3       1 <0>        -0.0927
     24 C20        12.5311    6.4306    6.0570 C.3       1 <0>         0.0225
     25 H1         11.6009    6.7057    6.5540 H         1 <0>         0.0544
     26 O2         13.2690    5.5242    6.8846 O.3       1 <0>        -0.3442
     27 C21        12.4792    4.4396    7.3711 C.3       1 <0>         0.0922
     28 C22        13.3515    7.6678    5.7973 C.2       1 <0>         0.5062
     29 O3         12.8709    8.5978    5.1723 O.co2     1 <0>        -0.6913
     30 O4         14.4958    7.7387    6.2122 O.co2     1 <0>        -0.6724
     31 C23         4.1488   -1.0490   -1.4580 C.ar      1 <0>        -0.0701
     32 C24         3.7557   -2.2377   -2.0441 C.ar      1 <0>        -0.0903
     33 C25         4.1441   -2.5322   -3.3376 C.ar      1 <0>        -0.1205
     34 C26         4.9253   -1.6378   -4.0453 C.ar      1 <0>        -0.1117
     35 C27         5.3176   -0.4487   -3.4596 C.ar      1 <0>        -0.1193
     36 C28         4.9256   -0.1523   -2.1675 C.ar      1 <0>        -0.0903
     37 H2         -0.9470    1.8813   -0.0159 H         1 <0>         0.1245
     38 H3          1.1675    3.1428   -0.0326 H         1 <0>         0.1267
     39 H4          3.3173    1.9423   -0.0453 H         1 <0>         0.1257
     40 H5          1.2379   -1.7813   -0.0323 H         1 <0>         0.1257
     41 H6         -0.9119   -0.5808   -0.0207 H         1 <0>         0.1258
     42 H7          4.3731   -1.5319    3.1713 H         1 <0>         0.1064
     43 H8          5.2977   -2.9470    2.5948 H         1 <0>         0.1235
     44 H9          6.6041   -1.5969    1.0684 H         1 <0>         0.1093
     45 H10         6.0963    0.2243    3.4714 H         1 <0>         0.0895
     46 H11         7.1526   -1.2075    3.5175 H         1 <0>         0.0953
     47 H12         8.5454   -0.2383    1.7094 H         1 <0>         0.1000
     48 H13         7.4890    1.1936    1.6632 H         1 <0>         0.1019
     49 H14        10.0503    1.9104    2.2291 H         1 <0>         0.4100
     50 H15        10.1466    0.8652    5.5895 H         1 <0>         0.1351
     51 H16        11.3309    2.0251    7.4036 H         1 <0>         0.1248
     52 H17        10.8716    4.1935    3.0086 H         1 <0>         0.1250
     53 H18        13.1366    5.6287    4.1526 H         1 <0>         0.0831
     54 H19        11.5018    6.3299    4.1684 H         1 <0>         0.0860
     55 H20        11.7451    4.8182    8.0823 H         1 <0>         0.0560
     56 H21        13.1254    3.7188    7.8721 H         1 <0>         0.0974
     57 H22         3.1454   -2.9365   -1.4912 H         1 <0>         0.1257
     58 H23         3.8376   -3.4612   -3.7953 H         1 <0>         0.1248
     59 H24         5.2294   -1.8682   -5.0557 H         1 <0>         0.1235
     60 H25         5.9282    0.2499   -4.0123 H         1 <0>         0.1262
     61 H26         5.2290    0.7783   -1.7112 H         1 <0>         0.1312
@<TRIPOS>BOND
     1    1    6 ar
     2    1    2 ar
     3    1   37 1
     4    2    3 ar
     5    2   38 1
     6    3    4 ar
     7    3   39 1
     8    4    5 ar
     9    4    7 1
    10    5    6 ar
    11    5   40 1
    12    6   41 1
    13    7   11 1
    14    7    8 1
    15    7   31 1
    16    8    9 1
    17    9   10 1
    18    9   42 1
    19    9   43 1
    20   10   11 1
    21   10   12 1
    22   10   44 1
    23   12   13 1
    24   12   45 1
    25   12   46 1
    26   13   14 1
    27   13   47 1
    28   13   48 1
    29   14   15 2
    30   14   16 am
    31   16   17 1
    32   16   49 1
    33   17   22 ar
    34   17   18 ar
    35   18   19 ar
    36   18   50 1
    37   19   20 ar
    38   19   51 1
    39   20   27 1
    40   20   21 ar
    41   21   22 ar
    42   21   23 1
    43   22   52 1
    44   23   24 1
    45   23   53 1
    46   23   54 1
    47   24   25 1
    48   24   26 1
    49   24   28 1
    50   26   27 1
    51   27   55 1
    52   27   56 1
    53   28   29 2
    54   28   30 1
    55   31   36 ar
    56   31   32 ar
    57   32   33 ar
    58   32   57 1
    59   33   34 ar
    60   33   58 1
    61   34   35 ar
    62   34   59 1
    63   35   36 ar
    64   35   60 1
    65   36   61 1
@<TRIPOS>MOLECULE
CHEMBL267759
   69    74     0     0     0
SMALL
USER_CHARGES

@<TRIPOS>ATOM
      1 C1         10.9248    5.4819   -0.8216 C.ar      1 <0>        -0.1235
      2 C2         11.4180    4.3842   -1.5034 C.ar      1 <0>        -0.1173
      3 C3         10.8240    3.1481   -1.3481 C.ar      1 <0>        -0.1104
      4 C4          9.7254    3.0072   -0.5026 C.ar      1 <0>        -0.0383
      5 C5          9.2327    4.1164    0.1817 C.ar      1 <0>        -0.1120
      6 C6          9.8345    5.3478    0.0190 C.ar      1 <0>        -0.1186
      7 C7          9.0823    1.6809   -0.3321 C.ar      1 <0>        -0.0487
      8 C8          9.5783    0.5706   -1.0123 C.ar      1 <0>        -0.1046
      9 C9          8.9765   -0.6608   -0.8496 C.ar      1 <0>        -0.1055
     10 C10         7.8827   -0.7938   -0.0134 C.ar      1 <0>        -0.0782
     11 C11         7.3859    0.3051    0.6640 C.ar      1 <0>        -0.1041
     12 C12         7.9837    1.5400    0.5134 C.ar      1 <0>        -0.1045
     13 C13         7.2296   -2.1408    0.1598 C.3       1 <0>        -0.0864
     14 C14         7.8661   -2.8674    1.3463 C.3       1 <0>         0.2464
     15 C15         9.3617   -3.0573    1.0852 C.3       1 <0>        -0.0631
     16 C16         9.9662   -3.8738    2.1983 C.ar      1 <0>        -0.1142
     17 C17        10.6085   -3.2435    3.2476 C.ar      1 <0>        -0.0940
     18 C18        11.1630   -3.9924    4.2686 C.ar      1 <0>        -0.0800
     19 C19        11.0749   -5.3717    4.2405 C.ar      1 <0>        -0.0929
     20 C20        10.4318   -6.0020    3.1916 C.ar      1 <0>        -0.0921
     21 C21         9.8736   -5.2528    2.1728 C.ar      1 <0>        -0.1132
     22 C22        11.6803   -6.1882    5.3531 C.3       1 <0>        -0.2343
     23 F1         11.5707   -5.4873    6.5588 F         1 <0>        -0.2131
     24 F2         11.0022   -7.4073    5.4590 F         1 <0>        -0.2146
     25 P1         13.4391   -6.5009    4.9897 P.3       1 <0>         2.1389
     26 O1         13.5563   -7.4105    3.7196 O.2       1 <0>        -1.1362
     27 O2         14.1679   -5.1393    4.7259 O.3       1 <0>        -1.1333
     28 O3         14.1047   -7.2214    6.2113 O.3       1 <0>        -1.1422
     29 C23         7.2117   -4.2137    1.5207 C.ar      1 <0>        -0.0869
     30 C24         6.7033   -4.5806    2.7526 C.ar      1 <0>        -0.0921
     31 C25         6.1030   -5.8155    2.9126 C.ar      1 <0>        -0.1105
     32 C26         6.0108   -6.6833    1.8405 C.ar      1 <0>        -0.1131
     33 C27         6.5185   -6.3160    0.6083 C.ar      1 <0>        -0.1159
     34 C28         7.1149   -5.0794    0.4473 C.ar      1 <0>        -0.1067
     35 N1          7.6798   -2.0726    2.5627 N.pl3     1 <0>        -0.3694
     36 C29         6.4833   -1.6761    3.1110 C.ar      1 <0>         0.0884
     37 C30         5.1506   -1.8586    2.7576 C.ar      1 <0>        -0.1170
     38 C31         4.1622   -1.3212    3.5336 C.ar      1 <0>        -0.0794
     39 C32         4.4763   -0.5925    4.6737 C.ar      1 <0>        -0.1424
     40 C33         5.7755   -0.3992    5.0419 C.ar      1 <0>        -0.0365
     41 C34         6.8078   -0.9401    4.2638 C.ar      1 <0>        -0.0167
     42 N2          8.1513   -0.9175    4.3702 N.2       1 <0>        -0.2318
     43 N3          8.6872   -1.5717    3.4007 N.2       1 <0>         0.0361
     44 H1         11.3954    6.4464   -0.9425 H         1 <0>         0.1204
     45 H2         12.2693    4.4946   -2.1588 H         1 <0>         0.1234
     46 H3         11.2097    2.2917   -1.8812 H         1 <0>         0.1265
     47 H4          8.3813    4.0129    0.8380 H         1 <0>         0.1235
     48 H5          9.4536    6.2082    0.5492 H         1 <0>         0.1219
     49 H6         10.4318    0.6735   -1.6660 H         1 <0>         0.1267
     50 H7          9.3601   -1.5220   -1.3764 H         1 <0>         0.1286
     51 H8          6.5314    0.1958    1.3153 H         1 <0>         0.1174
     52 H9          7.5978    2.3965    1.0462 H         1 <0>         0.1213
     53 H10         6.1638   -2.0067    0.3452 H         1 <0>         0.0842
     54 H11         7.3693   -2.7315   -0.7455 H         1 <0>         0.1013
     55 H12         9.5020   -3.5758    0.1367 H         1 <0>         0.0901
     56 H13         9.8496   -2.0835    1.0426 H         1 <0>         0.0897
     57 H14        10.6773   -2.1659    3.2696 H         1 <0>         0.1296
     58 H15        11.6654   -3.5000    5.0881 H         1 <0>         0.1246
     59 H16        10.3633   -7.0796    3.1695 H         1 <0>         0.1206
     60 H17         9.3679   -5.7451    1.3552 H         1 <0>         0.1115
     61 H18         6.7753   -3.9026    3.5902 H         1 <0>         0.1143
     62 H19         5.7063   -6.1025    3.8752 H         1 <0>         0.1193
     63 H20         5.5425   -7.6484    1.9656 H         1 <0>         0.1209
     64 H21         6.4468   -6.9941   -0.2292 H         1 <0>         0.1241
     65 H22         7.5083   -4.7909   -0.5163 H         1 <0>         0.1245
     66 H23         4.8974   -2.4232    1.8724 H         1 <0>         0.1265
     67 H24         3.1279   -1.4639    3.2577 H         1 <0>         0.1301
     68 H25         3.6830   -0.1741    5.2752 H         1 <0>         0.1298
     69 H26         6.0078    0.1694    5.9303 H         1 <0>         0.1331
@<TRIPOS>BOND
     1    1    6 ar
     2    1    2 ar
     3    1   44 1
     4    2    3 ar
     5    2   45 1
     6    3    4 ar
     7    3   46 1
     8    4    5 ar
     9    4    7 1
    10    5    6 ar
    11    5   47 1
    12    6   48 1
    13    7   12 ar
    14    7    8 ar
    15    8    9 ar
    16    8   49 1
    17    9   10 ar
    18    9   50 1
    19   10   11 ar
    20   10   13 1
    21   11   12 ar
    22   11   51 1
    23   12   52 1
    24   13   14 1
    25   13   53 1
    26   13   54 1
    27   14   15 1
    28   14   29 1
    29   14   35 1
    30   15   16 1
    31   15   55 1
    32   15   56 1
    33   16   21 ar
    34   16   17 ar
    35   17   18 ar
    36   17   57 1
    37   18   19 ar
    38   18   58 1
    39   19   20 ar
    40   19   22 1
    41   20   21 ar
    42   20   59 1
    43   21   60 1
    44   22   23 1
    45   22   24 1
    46   22   25 1
    47   25   26 2
    48   25   27 1
    49   25   28 1
    50   29   34 ar
    51   29   30 ar
    52   30   31 ar
    53   30   61 1
    54   31   32 ar
    55   31   62 1
    56   32   33 ar
    57   32   63 1
    58   33   34 ar
    59   33   64 1
    60   34   65 1
    61   35   43 1
    62   35   36 1
    63   36   41 ar
    64   36   37 ar
    65   37   38 ar
    66   37   66 1
    67   38   39 ar
    68   38   67 1
    69   39   40 ar
    70   39   68 1
    71   40   41 ar
    72   40   69 1
    73   41   42 1
    74   42   43 2
@<TRIPOS>MOLECULE
CHEMBL267759__1
   69    74     0     0     0
SMALL
USER_CHARGES

@<TRIPOS>ATOM
      1 C1          6.2263   -9.0677   -4.4169 C.ar      1 <0>        -0.1236
      2 C2          5.2504   -8.1678   -4.0283 C.ar      1 <0>        -0.1186
      3 C3          5.5775   -7.0971   -3.2212 C.ar      1 <0>        -0.1121
      4 C4          6.8936   -6.9236   -2.7978 C.ar      1 <0>        -0.0382
      5 C5          7.8726   -7.8331   -3.1923 C.ar      1 <0>        -0.1104
      6 C6          7.5344   -8.9003   -3.9996 C.ar      1 <0>        -0.1172
      7 C7          7.2513   -5.7740   -1.9303 C.ar      1 <0>        -0.0490
      8 C8          6.2713   -4.8674   -1.5315 C.ar      1 <0>        -0.1046
      9 C9          6.6095   -3.8003   -0.7242 C.ar      1 <0>        -0.1042
     10 C10         7.9187   -3.6296   -0.3115 C.ar      1 <0>        -0.0780
     11 C11         8.8957   -4.5263   -0.7049 C.ar      1 <0>        -0.1054
     12 C12         8.5675   -5.6005   -1.5070 C.ar      1 <0>        -0.1045
     13 C13         8.2820   -2.4622    0.5694 C.3       1 <0>        -0.0870
     14 C14         8.1085   -2.8575    2.0373 C.3       1 <0>         0.2467
     15 C15         9.0131   -4.0499    2.3546 C.3       1 <0>        -0.0630
     16 C16         8.9575   -4.3435    3.8317 C.ar      1 <0>        -0.1136
     17 C17         9.7356   -3.6141    4.7112 C.ar      1 <0>        -0.1120
     18 C18         9.6845   -3.8835    6.0661 C.ar      1 <0>        -0.0798
     19 C19         8.8551   -4.8819    6.5415 C.ar      1 <0>        -0.0933
     20 C20         8.0763   -5.6106    5.6622 C.ar      1 <0>        -0.0914
     21 C21         8.1241   -5.3384    4.3077 C.ar      1 <0>        -0.0972
     22 C22         8.8002   -5.1761    8.0185 C.3       1 <0>        -0.2343
     23 F1          8.9612   -3.9868    8.7373 F         1 <0>        -0.2144
     24 F2          7.5631   -5.7481    8.3344 F         1 <0>        -0.2133
     25 P1         10.1359   -6.3367    8.4569 P.3       1 <0>         2.1390
     26 O1          9.8817   -7.7145    7.7557 O.2       1 <0>        -1.1353
     27 O2         11.5105   -5.7546    7.9816 O.3       1 <0>        -1.1343
     28 O3         10.1634   -6.5386   10.0103 O.3       1 <0>        -1.1423
     29 C23         8.4834   -1.6939    2.9186 C.ar      1 <0>        -0.0876
     30 C24         7.6082   -1.2563    3.8950 C.ar      1 <0>        -0.0919
     31 C25         7.9521   -0.1890    4.7034 C.ar      1 <0>        -0.1106
     32 C26         9.1713    0.4403    4.5357 C.ar      1 <0>        -0.1121
     33 C27        10.0469    0.0021    3.5599 C.ar      1 <0>        -0.1157
     34 C28         9.7048   -1.0679    2.7543 C.ar      1 <0>        -0.1061
     35 N1          6.7117   -3.2254    2.2821 N.pl3     1 <0>        -0.3686
     36 C29         5.6058   -2.4329    2.0858 C.ar      1 <0>         0.0886
     37 C30         5.4175   -1.1314    1.6329 C.ar      1 <0>        -0.1166
     38 C31         4.1541   -0.6171    1.5499 C.ar      1 <0>        -0.0793
     39 C32         3.0540   -1.3828    1.9146 C.ar      1 <0>        -0.1421
     40 C33         3.2118   -2.6618    2.3619 C.ar      1 <0>        -0.0369
     41 C34         4.4967   -3.2131    2.4560 C.ar      1 <0>        -0.0170
     42 N2          4.9569   -4.4165    2.8521 N.2       1 <0>        -0.2324
     43 N3          6.2392   -4.4578    2.7572 N.2       1 <0>         0.0347
     44 H1          5.9651   -9.9067   -5.0449 H         1 <0>         0.1204
     45 H2          4.2307   -8.3031   -4.3573 H         1 <0>         0.1218
     46 H3          4.8148   -6.3949   -2.9186 H         1 <0>         0.1234
     47 H4          8.8943   -7.7031   -2.8673 H         1 <0>         0.1266
     48 H5          8.2924   -9.6061   -4.3058 H         1 <0>         0.1234
     49 H6          5.2490   -4.9993   -1.8537 H         1 <0>         0.1212
     50 H7          5.8507   -3.0970   -0.4144 H         1 <0>         0.1173
     51 H8          9.9164   -4.3881   -0.3801 H         1 <0>         0.1288
     52 H9          9.3302   -6.3025   -1.8099 H         1 <0>         0.1267
     53 H10         9.3193   -2.1800    0.3893 H         1 <0>         0.1017
     54 H11         7.6310   -1.6182    0.3411 H         1 <0>         0.0844
     55 H12         8.6725   -4.9227    1.7976 H         1 <0>         0.0894
     56 H13        10.0384   -3.8142    2.0694 H         1 <0>         0.0905
     57 H14        10.3836   -2.8341    4.3397 H         1 <0>         0.1127
     58 H15        10.2930   -3.3141    6.7531 H         1 <0>         0.1229
     59 H16         7.4285   -6.3909    6.0336 H         1 <0>         0.1224
     60 H17         7.5129   -5.9053    3.6211 H         1 <0>         0.1282
     61 H18         6.6556   -1.7481    4.0260 H         1 <0>         0.1137
     62 H19         7.2680    0.1533    5.4658 H         1 <0>         0.1193
     63 H20         9.4397    1.2746    5.1668 H         1 <0>         0.1212
     64 H21        10.9994    0.4941    3.4286 H         1 <0>         0.1245
     65 H22        10.3905   -1.4126    1.9944 H         1 <0>         0.1246
     66 H23         6.2673   -0.5289    1.3480 H         1 <0>         0.1268
     67 H24         4.0097    0.3937    1.1980 H         1 <0>         0.1303
     68 H25         2.0625   -0.9606    1.8436 H         1 <0>         0.1298
     69 H26         2.3492   -3.2476    2.6430 H         1 <0>         0.1329
@<TRIPOS>BOND
     1    1    6 ar
     2    1    2 ar
     3    1   44 1
     4    2    3 ar
     5    2   45 1
     6    3    4 ar
     7    3   46 1
     8    4    5 ar
     9    4    7 1
    10    5    6 ar
    11    5   47 1
    12    6   48 1
    13    7   12 ar
    14    7    8 ar
    15    8    9 ar
    16    8   49 1
    17    9   10 ar
    18    9   50 1
    19   10   11 ar
    20   10   13 1
    21   11   12 ar
    22   11   51 1
    23   12   52 1
    24   13   14 1
    25   13   53 1
    26   13   54 1
    27   14   15 1
    28   14   29 1
    29   14   35 1
    30   15   16 1
    31   15   55 1
    32   15   56 1
    33   16   21 ar
    34   16   17 ar
    35   17   18 ar
    36   17   57 1
    37   18   19 ar
    38   18   58 1
    39   19   20 ar
    40   19   22 1
    41   20   21 ar
    42   20   59 1
    43   21   60 1
    44   22   23 1
    45   22   24 1
    46   22   25 1
    47   25   26 2
    48   25   27 1
    49   25   28 1
    50   29   34 ar
    51   29   30 ar
    52   30   31 ar
    53   30   61 1
    54   31   32 ar
    55   31   62 1
    56   32   33 ar
    57   32   63 1
    58   33   34 ar
    59   33   64 1
    60   34   65 1
    61   35   43 1
    62   35   36 1
    63   36   41 ar
    64   36   37 ar
    65   37   38 ar
    66   37   66 1
    67   38   39 ar
    68   38   67 1
    69   39   40 ar
    70   39   68 1
    71   40   41 ar
    72   40   69 1
    73   41   42 1
    74   42   43 2
@<TRIPOS>MOLECULE
CHEMBL25243
   65    69     0     0     0
SMALL
USER_CHARGES

@<TRIPOS>ATOM
      1 C1         -1.0687    1.9730    0.4925 C.3       1 <0>        -0.1531
      2 C2         -0.8490    0.4589    0.4984 C.3       1 <0>        -0.1253
      3 C3         -0.2252    0.0393    1.8309 C.3       1 <0>        -0.1167
      4 C4         -0.0055   -1.4748    1.8369 C.3       1 <0>        -0.0501
      5 C5          0.6089   -1.8881    3.1494 C.2       1 <0>         0.0397
      6 C6         -0.0814   -2.2475    4.2401 C.2       1 <0>        -0.1602
      7 C7          0.9158   -2.5653    5.2692 C.ar      1 <0>        -0.1161
      8 C8          0.8470   -2.9917    6.5947 C.ar      1 <0>        -0.0690
      9 C9          1.9996   -3.2029    7.2995 C.ar      1 <0>        -0.1360
     10 C10         3.2353   -2.9951    6.7038 C.ar      1 <0>        -0.0966
     11 C11         3.3230   -2.5736    5.3943 C.ar      1 <0>        -0.1084
     12 C12         2.1640   -2.3536    4.6602 C.ar      1 <0>         0.0505
     13 O1          1.9293   -1.9553    3.3939 O.3       1 <0>        -0.1921
     14 C13        -1.5803   -2.3124    4.3818 C.3       1 <0>        -0.0046
     15 C14        -2.0625   -3.6866    3.9944 C.ar      1 <0>        -0.1010
     16 C15        -2.4013   -3.9463    2.6676 C.ar      1 <0>        -0.0986
     17 C16        -2.8400   -5.1763    2.2847 C.ar      1 <0>        -0.1173
     18 C17        -2.9544   -6.2022    3.2388 C.ar      1 <0>         0.0140
     19 C18        -2.6099   -5.9383    4.5884 C.ar      1 <0>        -0.0845
     20 C19        -2.1553   -4.6567    4.9444 C.ar      1 <0>        -0.0749
     21 C20        -2.7220   -6.9617    5.5448 C.ar      1 <0>        -0.0558
     22 C21        -3.1587   -8.1942    5.1707 C.ar      1 <0>        -0.1731
     23 C22        -3.5001   -8.4632    3.8421 C.ar      1 <0>         0.2145
     24 C23        -3.4033   -7.4841    2.8793 C.ar      1 <0>        -0.1567
     25 Br1        -3.8692   -7.8620    1.0860 Br        1 <0>        -0.0448
     26 O2         -3.9327   -9.7047    3.4973 O.3       1 <0>        -0.2692
     27 C24        -3.8992  -10.7088    4.5135 C.3       1 <0>         0.0181
     28 C25        -3.8193  -12.0910    3.8622 C.3       1 <0>        -0.0621
     29 C26        -2.5110  -12.2247    3.1263 C.ar      1 <0>        -0.0730
     30 C27        -2.4218  -11.8439    1.8004 C.ar      1 <0>        -0.0990
     31 C28        -1.2218  -11.9665    1.1253 C.ar      1 <0>        -0.1211
     32 C29        -0.1108  -12.4695    1.7762 C.ar      1 <0>        -0.1319
     33 C30        -0.1998  -12.8495    3.1024 C.ar      1 <0>        -0.1241
     34 C31        -1.3988  -12.7229    3.7787 C.ar      1 <0>        -0.1197
     35 C32        -5.1496  -10.6191    5.3499 C.2       1 <0>         0.4810
     36 O3         -6.0323   -9.8356    5.0445 O.co2     1 <0>        -0.6667
     37 O4         -5.2784  -11.3301    6.3319 O.co2     1 <0>        -0.6872
     38 H1         -0.1121    2.4795    0.6213 H         1 <0>         0.0530
     39 H2         -1.5131    2.2720   -0.4569 H         1 <0>         0.0547
     40 H3         -1.7374    2.2464    1.3087 H         1 <0>         0.0547
     41 H4         -1.8056   -0.0475    0.3695 H         1 <0>         0.0659
     42 H5         -0.1803    0.1856   -0.3179 H         1 <0>         0.0637
     43 H6          0.7314    0.5457    1.9598 H         1 <0>         0.0662
     44 H7         -0.8939    0.3126    2.6472 H         1 <0>         0.0688
     45 H8         -0.9621   -1.9813    1.7080 H         1 <0>         0.0997
     46 H9          0.6632   -1.7481    1.0206 H         1 <0>         0.0847
     47 H10        -0.1125   -3.1542    7.0630 H         1 <0>         0.1257
     48 H11         1.9477   -3.5332    8.3264 H         1 <0>         0.1283
     49 H12         4.1378   -3.1649    7.2721 H         1 <0>         0.1329
     50 H13         4.2899   -2.4144    4.9403 H         1 <0>         0.1292
     51 H14        -1.8566   -2.1086    5.4163 H         1 <0>         0.0816
     52 H15        -2.0394   -1.5691    3.7300 H         1 <0>         0.0824
     53 H16        -2.3146   -3.1598    1.9326 H         1 <0>         0.1187
     54 H17        -3.0993   -5.3631    1.2531 H         1 <0>         0.1313
     55 H18        -1.8847   -4.4418    5.9676 H         1 <0>         0.1222
     56 H19        -2.4615   -6.7699    6.5752 H         1 <0>         0.1320
     57 H20        -3.2426   -8.9764    5.9106 H         1 <0>         0.1389
     58 H21        -3.0261  -10.5550    5.1476 H         1 <0>         0.0678
     59 H22        -3.8832  -12.8597    4.6323 H         1 <0>         0.0972
     60 H23        -4.6448  -12.2102    3.1605 H         1 <0>         0.0799
     61 H24        -3.2898  -11.4509    1.2919 H         1 <0>         0.1234
     62 H25        -1.1522  -11.6696    0.0893 H         1 <0>         0.1167
     63 H26         0.8266  -12.5660    1.2486 H         1 <0>         0.1147
     64 H27         0.6680  -13.2428    3.6108 H         1 <0>         0.1165
     65 H28        -1.4674  -13.0162    4.8158 H         1 <0>         0.1206
@<TRIPOS>BOND
     1    1    2 1
     2    1   38 1
     3    1   39 1
     4    1   40 1
     5    2    3 1
     6    2   41 1
     7    2   42 1
     8    3    4 1
     9    3   43 1
    10    3   44 1
    11    4    5 1
    12    4   45 1
    13    4   46 1
    14    5   13 1
    15    5    6 2
    16    6    7 1
    17    6   14 1
    18    7   12 ar
    19    7    8 ar
    20    8    9 ar
    21    8   47 1
    22    9   10 ar
    23    9   48 1
    24   10   11 ar
    25   10   49 1
    26   11   12 ar
    27   11   50 1
    28   12   13 1
    29   14   15 1
    30   14   51 1
    31   14   52 1
    32   15   20 ar
    33   15   16 ar
    34   16   17 ar
    35   16   53 1
    36   17   18 ar
    37   17   54 1
    38   18   24 ar
    39   18   19 ar
    40   19   20 ar
    41   19   21 ar
    42   20   55 1
    43   21   22 ar
    44   21   56 1
    45   22   23 ar
    46   22   57 1
    47   23   24 ar
    48   23   26 1
    49   24   25 1
    50   26   27 1
    51   27   28 1
    52   27   35 1
    53   27   58 1
    54   28   29 1
    55   28   59 1
    56   28   60 1
    57   29   34 ar
    58   29   30 ar
    59   30   31 ar
    60   30   61 1
    61   31   32 ar
    62   31   62 1
    63   32   33 ar
    64   32   63 1
    65   33   34 ar
    66   33   64 1
    67   34   65 1
    68   35   36 2
    69   35   37 1
@<TRIPOS>MOLECULE
CHEMBL25243__1
   65    69     0     0     0
SMALL
USER_CHARGES

@<TRIPOS>ATOM
      1 C1         -0.9224    1.9197    0.4293 C.3       1 <0>        -0.1529
      2 C2         -0.8643    0.3978    0.2838 C.3       1 <0>        -0.1254
      3 C3          0.0793   -0.1800    1.3405 C.3       1 <0>        -0.1164
      4 C4          0.1374   -1.7019    1.1949 C.3       1 <0>        -0.0501
      5 C5          1.0668   -2.2710    2.2358 C.2       1 <0>         0.0398
      6 C6          0.6964   -2.6646    3.4620 C.2       1 <0>        -0.1614
      7 C7          1.9156   -3.1454    4.1230 C.ar      1 <0>        -0.1164
      8 C8          2.1983   -3.6744    5.3815 C.ar      1 <0>        -0.0692
      9 C9          3.4800   -4.0344    5.6930 C.ar      1 <0>        -0.1353
     10 C10         4.4994   -3.8761    4.7653 C.ar      1 <0>        -0.0960
     11 C11         4.2389   -3.3548    3.5160 C.ar      1 <0>        -0.1080
     12 C12         2.9432   -2.9830    3.1790 C.ar      1 <0>         0.0509
     13 O1          2.3868   -2.4628    2.0668 O.3       1 <0>        -0.1918
     14 C13        -0.6926   -2.6221    4.0450 C.3       1 <0>        -0.0035
     15 C14        -1.4033   -3.9165    3.7445 C.ar      1 <0>        -0.1012
     16 C15        -2.1428   -4.0366    2.5692 C.ar      1 <0>        -0.0987
     17 C16        -2.7964   -5.1916    2.2679 C.ar      1 <0>        -0.1174
     18 C17        -2.7269   -6.2815    3.1530 C.ar      1 <0>         0.0140
     19 C18        -1.9748   -6.1595    4.3485 C.ar      1 <0>        -0.0845
     20 C19        -1.3089   -4.9522    4.6222 C.ar      1 <0>        -0.0750
     21 C20        -1.9023   -7.2472    5.2352 C.ar      1 <0>        -0.0564
     22 C21        -2.5517   -8.4056    4.9415 C.ar      1 <0>        -0.1712
     23 C22        -3.2950   -8.5346    3.7648 C.ar      1 <0>         0.2160
     24 C23        -3.3885   -7.4891    2.8741 C.ar      1 <0>        -0.1572
     25 Br1        -4.3983   -7.6776    1.2864 Br        1 <0>        -0.0452
     26 O2         -3.9327   -9.7047    3.4973 O.3       1 <0>        -0.2697
     27 C24        -3.8992  -10.7088    4.5135 C.3       1 <0>         0.0181
     28 C25        -5.1007  -11.6415    4.3487 C.3       1 <0>        -0.0618
     29 C26        -6.3724  -10.8703    4.5921 C.ar      1 <0>        -0.0729
     30 C27        -6.8975  -10.7884    5.8682 C.ar      1 <0>        -0.1198
     31 C28        -8.0639  -10.0810    6.0915 C.ar      1 <0>        -0.1241
     32 C29        -8.7050   -9.4551    5.0388 C.ar      1 <0>        -0.1320
     33 C30        -8.1794   -9.5363    3.7629 C.ar      1 <0>        -0.1210
     34 C31        -7.0106  -10.2401    3.5403 C.ar      1 <0>        -0.0991
     35 C32        -2.6252  -11.5045    4.3916 C.2       1 <0>         0.4805
     36 O3         -1.8205  -11.2365    3.5156 O.co2     1 <0>        -0.6669
     37 O4         -2.3991  -12.4163    5.1688 O.co2     1 <0>        -0.6867
     38 H1          0.0755    2.3362    0.2921 H         1 <0>         0.0532
     39 H2         -1.5946    2.3313   -0.3235 H         1 <0>         0.0545
     40 H3         -1.2895    2.1759    1.4232 H         1 <0>         0.0544
     41 H4         -1.8622   -0.0187    0.4210 H         1 <0>         0.0655
     42 H5         -0.4972    0.1416   -0.7101 H         1 <0>         0.0639
     43 H6          1.0772    0.2365    1.2032 H         1 <0>         0.0663
     44 H7         -0.2878    0.0762    2.3344 H         1 <0>         0.0685
     45 H8         -0.8605   -2.1184    1.3322 H         1 <0>         0.0993
     46 H9          0.5045   -1.9581    0.2011 H         1 <0>         0.0850
     47 H10         1.4083   -3.7989    6.1073 H         1 <0>         0.1251
     48 H11         3.7004   -4.4444    6.6676 H         1 <0>         0.1284
     49 H12         5.5075   -4.1639    5.0246 H         1 <0>         0.1332
     50 H13         5.0397   -3.2354    2.8013 H         1 <0>         0.1295
     51 H14        -0.6294   -2.4843    5.1244 H         1 <0>         0.0810
     52 H15        -1.2462   -1.7928    3.6047 H         1 <0>         0.0819
     53 H16        -2.1981   -3.2007    1.8876 H         1 <0>         0.1186
     54 H17        -3.3659   -5.2703    1.3536 H         1 <0>         0.1312
     55 H18        -0.7283   -4.8458    5.5266 H         1 <0>         0.1221
     56 H19        -1.3314   -7.1636    6.1482 H         1 <0>         0.1317
     57 H20        -2.4918   -9.2379    5.6272 H         1 <0>         0.1381
     58 H21        -3.9390  -10.2348    5.4942 H         1 <0>         0.0679
     59 H22        -5.1098  -12.0471    3.3370 H         1 <0>         0.0792
     60 H23        -5.0280  -12.4582    5.0669 H         1 <0>         0.0982
     61 H24        -6.3966  -11.2774    6.6907 H         1 <0>         0.1205
     62 H25        -8.4746  -10.0176    7.0884 H         1 <0>         0.1164
     63 H26        -9.6167   -8.9031    5.2131 H         1 <0>         0.1147
     64 H27        -8.6805   -9.0476    2.9403 H         1 <0>         0.1167
     65 H28        -6.5980  -10.3004    2.5441 H         1 <0>         0.1232
@<TRIPOS>BOND
     1    1    2 1
     2    1   38 1
     3    1   39 1
     4    1   40 1
     5    2    3 1
     6    2   41 1
     7    2   42 1
     8    3    4 1
     9    3   43 1
    10    3   44 1
    11    4    5 1
    12    4   45 1
    13    4   46 1
    14    5   13 1
    15    5    6 2
    16    6    7 1
    17    6   14 1
    18    7   12 ar
    19    7    8 ar
    20    8    9 ar
    21    8   47 1
    22    9   10 ar
    23    9   48 1
    24   10   11 ar
    25   10   49 1
    26   11   12 ar
    27   11   50 1
    28   12   13 1
    29   14   15 1
    30   14   51 1
    31   14   52 1
    32   15   20 ar
    33   15   16 ar
    34   16   17 ar
    35   16   53 1
    36   17   18 ar
    37   17   54 1
    38   18   24 ar
    39   18   19 ar
    40   19   20 ar
    41   19   21 ar
    42   20   55 1
    43   21   22 ar
    44   21   56 1
    45   22   23 ar
    46   22   57 1
    47   23   24 ar
    48   23   26 1
    49   24   25 1
    50   26   27 1
    51   27   28 1
    52   27   35 1
    53   27   58 1
    54   28   29 1
    55   28   59 1
    56   28   60 1
    57   29   34 ar
    58   29   30 ar
    59   30   31 ar
    60   30   61 1
    61   31   32 ar
    62   31   62 1
    63   32   33 ar
    64   32   63 1
    65   33   34 ar
    66   33   64 1
    67   34   65 1
    68   35   36 2
    69   35   37 1
@<TRIPOS>MOLECULE
CHEMBL601290
   31    33     0     0     0
SMALL
USER_CHARGES

@<TRIPOS>ATOM
      1 C1         -0.0162    1.3461    0.0094 C.2       1 <0>        -0.2007
      2 C2          1.3161    1.7911   -0.0009 C.2       1 <0>        -0.1650
      3 C3          2.1132    0.6863   -0.0144 C.2       1 <0>         0.0394
      4 N1          1.3013   -0.4187   -0.0126 N.pl3     1 <0>        -0.5548
      5 H1          1.6010   -1.3412   -0.0199 H         1 <0>         0.4145
      6 C4          0.0021   -0.0041    0.0020 C.2       1 <0>         0.0053
      7 C5          3.5918    0.6800   -0.0290 C.ar      1 <0>        -0.0096
      8 C6          4.2962    1.8848   -0.0239 C.ar      1 <0>        -0.0718
      9 C7          5.6762    1.8782   -0.0371 C.ar      1 <0>        -0.1281
     10 C8          6.3669    0.6766   -0.0558 C.ar      1 <0>         0.1197
     11 C9          5.6701   -0.5310   -0.0615 C.ar      1 <0>         0.1395
     12 C10         4.2856   -0.5307   -0.0421 C.ar      1 <0>        -0.0958
     13 N2          6.3699   -1.7431   -0.0809 N.pl3     1 <0>        -0.9398
     14 C11         6.7297   -2.5628   -1.2460 C.3       1 <0>         0.0477
     15 C12         7.4808   -3.7897   -0.8407 C.2       1 <0>         0.5163
     16 O1          7.8759   -4.6078   -1.6442 O.2       1 <0>        -0.4570
     17 N3          7.6853   -3.9176    0.4787 N.am      1 <0>        -1.0415
     18 S1          6.9965   -2.5908    1.2138 S.o2      1 <0>         2.7588
     19 O2          8.0522   -1.8110    1.7584 O.2       1 <0>        -0.9423
     20 O3          5.8979   -3.0597    1.9835 O.2       1 <0>        -0.9418
     21 O4          7.7269    0.6755   -0.0692 O.3       1 <0>        -0.4895
     22 H2         -0.8967    1.9713    0.0252 H         1 <0>         0.1405
     23 H3          1.6474    2.8190    0.0015 H         1 <0>         0.1407
     24 H4         -0.8656   -0.6471    0.0074 H         1 <0>         0.1686
     25 H5          3.7611    2.8228   -0.0100 H         1 <0>         0.1422
     26 H6          6.2194    2.8117   -0.0331 H         1 <0>         0.1456
     27 H7          3.7439   -1.4650   -0.0416 H         1 <0>         0.1309
     28 H8          5.8200   -2.8582   -1.7687 H         1 <0>         0.1354
     29 H9          7.3497   -1.9717   -1.9200 H         1 <0>         0.1400
     30 H10         8.1504   -4.6445    0.9215 H         1 <0>         0.4516
     31 H11         8.1288    0.6664    0.8103 H         1 <0>         0.4009
@<TRIPOS>BOND
     1    1    6 2
     2    1    2 1
     3    1   22 1
     4    2    3 2
     5    2   23 1
     6    3    4 1
     7    3    7 1
     8    4    5 1
     9    4    6 1
    10    6   24 1
    11    7   12 ar
    12    7    8 ar
    13    8    9 ar
    14    8   25 1
    15    9   10 ar
    16    9   26 1
    17   10   11 ar
    18   10   21 1
    19   11   12 ar
    20   11   13 1
    21   12   27 1
    22   13   18 1
    23   13   14 1
    24   14   15 1
    25   14   28 1
    26   14   29 1
    27   15   16 2
    28   15   17 am
    29   17   18 1
    30   17   30 1
    31   18   19 2
    32   18   20 2
    33   21   31 1
@<TRIPOS>MOLECULE
CHEMBL601290__1
   30    32     0     0     0
SMALL
USER_CHARGES

@<TRIPOS>ATOM
      1 C1         -0.0162    1.3461    0.0094 C.2       1 <0>        -0.2029
      2 C2          1.3161    1.7911   -0.0009 C.2       1 <0>        -0.1782
      3 C3          2.1132    0.6863   -0.0144 C.2       1 <0>         0.0580
      4 N1          1.3013   -0.4187   -0.0126 N.pl3     1 <0>        -0.5535
      5 H1          1.6010   -1.3412   -0.0199 H         1 <0>         0.4165
      6 C4          0.0021   -0.0041    0.0020 C.2       1 <0>        -0.0045
      7 C5          3.5918    0.6800   -0.0290 C.ar      1 <0>        -0.0230
      8 C6          4.2962    1.8848   -0.0239 C.ar      1 <0>        -0.0888
      9 C7          5.6762    1.8782   -0.0371 C.ar      1 <0>        -0.1339
     10 C8          6.3669    0.6766   -0.0558 C.ar      1 <0>         0.1099
     11 C9          5.6701   -0.5310   -0.0615 C.ar      1 <0>         0.1753
     12 C10         4.2856   -0.5307   -0.0421 C.ar      1 <0>        -0.1045
     13 N2          6.3699   -1.7431   -0.0809 N.pl3     1 <0>        -0.9649
     14 C11         6.7355   -2.5728   -1.2408 C.3       1 <0>         0.0432
     15 C12         7.4841   -3.7927   -0.8104 C.2       1 <0>         0.4520
     16 O1          7.9265   -4.7076   -1.6979 O.3       1 <0>        -0.6425
     17 N3          7.6825   -3.9202    0.4490 N.2       1 <0>        -0.9301
     18 S1          7.0024   -2.6012    1.2063 S.o2      1 <0>         2.6435
     19 O2          8.0632   -1.8283    1.7508 O.2       1 <0>        -1.0080
     20 O3          5.9079   -3.0762    1.9781 O.2       1 <0>        -1.0093
     21 O4          7.7269    0.6755   -0.0692 O.3       1 <0>        -0.4887
     22 H2         -0.8967    1.9713    0.0252 H         1 <0>         0.1363
     23 H3          1.6474    2.8190    0.0015 H         1 <0>         0.1379
     24 H4         -0.8656   -0.6471    0.0074 H         1 <0>         0.1650
     25 H5          3.7611    2.8228   -0.0100 H         1 <0>         0.1342
     26 H6          6.2194    2.8117   -0.0331 H         1 <0>         0.1374
     27 H7          3.7439   -1.4650   -0.0416 H         1 <0>         0.1264
     28 H8          5.8289   -2.8752   -1.7650 H         1 <0>         0.0967
     29 H9          7.3603   -1.9887   -1.9164 H         1 <0>         0.1018
     30 H10         8.1288    0.6664    0.8103 H         1 <0>         0.3988
@<TRIPOS>BOND
     1    1    6 2
     2    1    2 1
     3    1   22 1
     4    2    3 2
     5    2   23 1
     6    3    4 1
     7    3    7 1
     8    4    5 1
     9    4    6 1
    10    6   24 1
    11    7   12 ar
    12    7    8 ar
    13    8    9 ar
    14    8   25 1
    15    9   10 ar
    16    9   26 1
    17   10   11 ar
    18   10   21 1
    19   11   12 ar
    20   11   13 1
    21   12   27 1
    22   13   18 1
    23   13   14 1
    24   14   15 1
    25   14   28 1
    26   14   29 1
    27   15   16 1
    28   15   17 2
    29   17   18 1
    30   18   19 2
    31   18   20 2
    32   21   30 1
@<TRIPOS>MOLECULE
CHEMBL604457
   50    52     0     0     0
SMALL
USER_CHARGES

@<TRIPOS>ATOM
      1 C1         -0.0225    1.8097    0.0120 C.3       1 <0>        -0.7031
      2 S1          0.0021   -0.0041    0.0020 S.o2      1 <0>         2.6069
      3 O1          0.8352   -0.4880    1.0465 O.2       1 <0>        -0.9660
      4 O2         -1.3147   -0.5105   -0.1678 O.2       1 <0>        -0.9261
      5 O3          0.7306   -0.3783   -1.2808 O.3       1 <0>        -0.7161
      6 C2          2.1449   -0.1823   -1.2245 C.3       1 <0>         0.1083
      7 C3          2.6521    0.2702   -2.5952 C.3       1 <0>        -0.0860
      8 C4          4.1665    0.4801   -2.5348 C.3       1 <0>        -0.1194
      9 C5          4.8484   -0.8335   -2.1468 C.3       1 <0>        -0.1305
     10 C6          4.3411   -1.2859   -0.7760 C.3       1 <0>        -0.1234
     11 C7          2.8268   -1.4958   -0.8364 C.3       1 <0>        -0.0314
     12 Cl1         2.4435   -2.7579   -2.0656 Cl        1 <0>        -0.1532
     13 C8          1.9703    1.5837   -2.9832 C.3       1 <0>        -0.0909
     14 C9          2.3759    1.9658   -4.3834 C.ar      1 <0>        -0.0499
     15 C10         3.4969    2.7490   -4.5869 C.ar      1 <0>        -0.1204
     16 C11         3.8735    3.1029   -5.8689 C.ar      1 <0>        -0.0848
     17 C12         3.1259    2.6714   -6.9549 C.ar      1 <0>         0.1297
     18 C13         1.9967    1.8819   -6.7490 C.ar      1 <0>         0.1265
     19 C14         1.6292    1.5273   -5.4615 C.ar      1 <0>        -0.1354
     20 O4          1.2597    1.4563   -7.8100 O.3       1 <0>        -0.4800
     21 N1          3.5049    3.0288   -8.2541 N.pl3     1 <0>        -0.9256
     22 C15         4.4780    2.3425   -9.1119 C.3       1 <0>         0.0174
     23 C16         4.2740    2.6122  -10.5786 C.2       1 <0>         0.3866
     24 O5          4.4372    1.8194  -11.4748 O.2       1 <0>        -0.3828
     25 C17         3.8252    4.0618  -10.7356 C.3       1 <0>        -0.6725
     26 S2          2.9353    4.3236   -9.1517 S.o2      1 <0>         2.5753
     27 O6          1.5424    4.0920   -9.3105 O.2       1 <0>        -0.9166
     28 O7          3.4185    5.4852   -8.4912 O.2       1 <0>        -0.9322
     29 H1          1.0001    2.1870    0.0043 H         1 <0>         0.1274
     30 H2         -0.5497    2.1708   -0.8711 H         1 <0>         0.1364
     31 H3         -0.5327    2.1613    0.9088 H         1 <0>         0.1380
     32 H4          2.3766    0.5808   -0.4813 H         1 <0>         0.1061
     33 H5          2.4204   -0.4929   -3.3383 H         1 <0>         0.1077
     34 H6          4.5278    0.8024   -3.5114 H         1 <0>         0.0862
     35 H7          4.3982    1.2431   -1.7917 H         1 <0>         0.0710
     36 H8          4.6167   -1.5965   -2.8899 H         1 <0>         0.0777
     37 H9          5.9272   -0.6839   -2.1038 H         1 <0>         0.0768
     38 H10         4.8269   -2.2217   -0.4996 H         1 <0>         0.0891
     39 H11         4.5728   -0.5229   -0.0329 H         1 <0>         0.0879
     40 H12         2.4655   -1.8181    0.1401 H         1 <0>         0.1296
     41 H13         0.8884    1.4581   -2.9399 H         1 <0>         0.0864
     42 H14         2.2729    2.3687   -2.2903 H         1 <0>         0.0823
     43 H15         4.0796    3.0854   -3.7421 H         1 <0>         0.1353
     44 H16         4.7492    3.7154   -6.0250 H         1 <0>         0.1384
     45 H17         0.7568    0.9117   -5.2993 H         1 <0>         0.1393
     46 H18         1.5452    0.6060   -8.1714 H         1 <0>         0.3903
     47 H19         5.4805    2.6667   -8.8327 H         1 <0>         0.1220
     48 H20         4.4006    1.2690   -8.9395 H         1 <0>         0.1181
     49 H21         4.6813    4.7305  -10.8248 H         1 <0>         0.1812
     50 H22         3.1511    4.1744  -11.5847 H         1 <0>         0.1683
@<TRIPOS>BOND
     1    1    2 1
     2    1   29 1
     3    1   30 1
     4    1   31 1
     5    2    3 2
     6    2    4 2
     7    2    5 1
     8    5    6 1
     9    6   11 1
    10    6    7 1
    11    6   32 1
    12    7    8 1
    13    7   13 1
    14    7   33 1
    15    8    9 1
    16    8   34 1
    17    8   35 1
    18    9   10 1
    19    9   36 1
    20    9   37 1
    21   10   11 1
    22   10   38 1
    23   10   39 1
    24   11   12 1
    25   11   40 1
    26   13   14 1
    27   13   41 1
    28   13   42 1
    29   14   19 ar
    30   14   15 ar
    31   15   16 ar
    32   15   43 1
    33   16   17 ar
    34   16   44 1
    35   17   18 ar
    36   17   21 1
    37   18   19 ar
    38   18   20 1
    39   19   45 1
    40   20   46 1
    41   21   26 1
    42   21   22 1
    43   22   23 1
    44   22   47 1
    45   22   48 1
    46   23   24 2
    47   23   25 1
    48   25   26 1
    49   25   49 1
    50   25   50 1
    51   26   27 2
    52   26   28 2
@<TRIPOS>MOLECULE
CHEMBL604457__1
   50    52     0     0     0
SMALL
USER_CHARGES

@<TRIPOS>ATOM
      1 C1         -0.2106    1.9827   -0.5285 C.3       1 <0>        -0.7100
      2 S1         -0.0456    0.2234   -0.1181 S.o2      1 <0>         2.5997
      3 O1          0.8053    0.0614    1.0084 O.2       1 <0>        -0.9414
      4 O2         -1.3163   -0.4110   -0.1634 O.2       1 <0>        -0.9300
      5 O3          0.7306   -0.3783   -1.2808 O.3       1 <0>        -0.7215
      6 C2          2.1274   -0.0773   -1.2650 C.3       1 <0>         0.1048
      7 C3          2.5465    0.4707   -2.6307 C.3       1 <0>        -0.0881
      8 C4          4.0421    0.7930   -2.6137 C.3       1 <0>        -0.1230
      9 C5          4.8347   -0.4799   -2.3099 C.3       1 <0>        -0.1236
     10 C6          4.4156   -1.0279   -0.9442 C.3       1 <0>        -0.1238
     11 C7          2.9200   -1.3502   -0.9612 C.3       1 <0>        -0.0238
     12 Cl1         2.4261   -1.9960    0.6481 Cl        1 <0>        -0.1407
     13 C8          1.7539    1.7436   -2.9345 C.3       1 <0>        -0.0978
     14 C9          2.0760    2.2151   -4.3292 C.ar      1 <0>        -0.0511
     15 C10         3.1266    3.0897   -4.5358 C.ar      1 <0>        -0.1195
     16 C11         3.4263    3.5257   -5.8128 C.ar      1 <0>        -0.0841
     17 C12         2.6721    3.0852   -6.8906 C.ar      1 <0>         0.1312
     18 C13         1.6139    2.2035   -6.6814 C.ar      1 <0>         0.1268
     19 C14         1.3234    1.7673   -5.3994 C.ar      1 <0>        -0.1367
     20 O4          0.8707    1.7686   -7.7343 O.3       1 <0>        -0.4795
     21 N1          2.9733    3.5256   -8.1845 N.pl3     1 <0>        -0.9262
     22 C15         3.9615    2.9530   -9.1061 C.3       1 <0>         0.0176
     23 C16         3.6819    3.2687  -10.5510 C.2       1 <0>         0.3866
     24 O5          3.8696    2.5296  -11.4875 O.2       1 <0>        -0.3826
     25 C17         3.1202    4.6851  -10.6261 C.3       1 <0>        -0.6723
     26 S2          2.2745    4.8102   -9.0019 S.o2      1 <0>         2.5752
     27 O6          0.8977    4.4798   -9.1223 O.2       1 <0>        -0.9164
     28 O7          2.6943    5.9761   -8.3065 O.2       1 <0>        -0.9316
     29 H1          0.7797    2.4276   -0.6255 H         1 <0>         0.1278
     30 H2         -0.7496    2.0871   -1.4701 H         1 <0>         0.1340
     31 H3         -0.7611    2.4905    0.2635 H         1 <0>         0.1378
     32 H4          2.3296    0.6688   -0.4965 H         1 <0>         0.1090
     33 H5          2.3443   -0.2754   -3.3992 H         1 <0>         0.1022
     34 H6          4.3407    1.1834   -3.5866 H         1 <0>         0.0876
     35 H7          4.2443    1.5391   -1.8452 H         1 <0>         0.0747
     36 H8          4.6325   -1.2260   -3.0784 H         1 <0>         0.0716
     37 H9          5.9002   -0.2503   -2.2978 H         1 <0>         0.0812
     38 H10         4.9803   -1.9348   -0.7278 H         1 <0>         0.0889
     39 H11         4.6178   -0.2819   -0.1757 H         1 <0>         0.0834
     40 H12         2.7178   -2.0963   -1.7297 H         1 <0>         0.1172
     41 H13         0.6869    1.5339   -2.8592 H         1 <0>         0.0843
     42 H14         2.0233    2.5192   -2.2175 H         1 <0>         0.0864
     43 H15         3.7144    3.4333   -3.6974 H         1 <0>         0.1363
     44 H16         4.2471    4.2095   -5.9713 H         1 <0>         0.1393
     45 H17         0.5064    1.0804   -5.2350 H         1 <0>         0.1393
     46 H18         1.2050    0.9588   -8.1438 H         1 <0>         0.3905
     47 H19         4.9469    3.3407   -8.8476 H         1 <0>         0.1222
     48 H20         3.9713    1.8703   -8.9801 H         1 <0>         0.1180
     49 H21         3.9198    5.4205  -10.7147 H         1 <0>         0.1815
     50 H22         2.4075    4.7820  -11.4452 H         1 <0>         0.1686
@<TRIPOS>BOND
     1    1    2 1
     2    1   29 1
     3    1   30 1
     4    1   31 1
     5    2    3 2
     6    2    4 2
     7    2    5 1
     8    5    6 1
     9    6   11 1
    10    6    7 1
    11    6   32 1
    12    7    8 1
    13    7   13 1
    14    7   33 1
    15    8    9 1
    16    8   34 1
    17    8   35 1
    18    9   10 1
    19    9   36 1
    20    9   37 1
    21   10   11 1
    22   10   38 1
    23   10   39 1
    24   11   12 1
    25   11   40 1
    26   13   14 1
    27   13   41 1
    28   13   42 1
    29   14   19 ar
    30   14   15 ar
    31   15   16 ar
    32   15   43 1
    33   16   17 ar
    34   16   44 1
    35   17   18 ar
    36   17   21 1
    37   18   19 ar
    38   18   20 1
    39   19   45 1
    40   20   46 1
    41   21   26 1
    42   21   22 1
    43   22   23 1
    44   22   47 1
    45   22   48 1
    46   23   24 2
    47   23   25 1
    48   25   26 1
    49   25   49 1
    50   25   50 1
    51   26   27 2
    52   26   28 2
@<TRIPOS>MOLECULE
CHEMBL604457__2
   50    52     0     0     0
SMALL
USER_CHARGES

@<TRIPOS>ATOM
      1 C1         -0.2120    1.9778   -0.5149 C.3       1 <0>        -0.7101
      2 S1         -0.0442    0.2166   -0.1137 S.o2      1 <0>         2.6003
      3 O1          0.8089    0.0499    1.0104 O.2       1 <0>        -0.9424
      4 O2         -1.3142   -0.4190   -0.1599 O.2       1 <0>        -0.9306
      5 O3          0.7306   -0.3783   -1.2808 O.3       1 <0>        -0.7160
      6 C2          2.1274   -0.0773   -1.2650 C.3       1 <0>         0.1054
      7 C3          2.5465    0.4707   -2.6307 C.3       1 <0>        -0.0865
      8 C4          2.2627   -0.5765   -3.7094 C.3       1 <0>        -0.1205
      9 C5          3.0553   -1.8494   -3.4055 C.3       1 <0>        -0.1184
     10 C6          2.6362   -2.3974   -2.0399 C.3       1 <0>        -0.1249
     11 C7          2.9200   -1.3502   -0.9612 C.3       1 <0>        -0.0233
     12 Cl1         2.4261   -1.9960    0.6481 Cl        1 <0>        -0.1406
     13 C8          1.7539    1.7436   -2.9345 C.3       1 <0>        -0.0979
     14 C9          2.2524    2.3508   -4.2205 C.ar      1 <0>        -0.0513
     15 C10         3.2850    3.2698   -4.1943 C.ar      1 <0>        -0.1199
     16 C11         3.7459    3.8303   -5.3707 C.ar      1 <0>        -0.0836
     17 C12         3.1722    3.4704   -6.5814 C.ar      1 <0>         0.1310
     18 C13         2.1321    2.5439   -6.6070 C.ar      1 <0>         0.1259
     19 C14         1.6795    1.9831   -5.4242 C.ar      1 <0>        -0.1355
     20 O4          1.5655    2.1876   -7.7910 O.3       1 <0>        -0.4793
     21 N1          3.6369    4.0368   -7.7740 N.pl3     1 <0>        -0.9262
     22 C15         4.7693    3.5797   -8.5879 C.3       1 <0>         0.0177
     23 C16         4.6864    4.0197  -10.0249 C.2       1 <0>         0.3866
     24 O5          5.0361    3.3760  -10.9850 O.2       1 <0>        -0.3826
     25 C17         4.0835    5.4208  -10.0572 C.3       1 <0>        -0.6723
     26 S2          3.0100    5.3715   -8.5692 S.o2      1 <0>         2.5752
     27 O6          1.6793    5.0152   -8.9178 O.2       1 <0>        -0.9164
     28 O7          3.2779    6.4794   -7.7207 O.2       1 <0>        -0.9317
     29 H1          0.7777    2.4243   -0.6114 H         1 <0>         0.1276
     30 H2         -0.7528    2.0863   -1.4550 H         1 <0>         0.1333
     31 H3         -0.7616    2.4809    0.2807 H         1 <0>         0.1364
     32 H4          2.3296    0.6688   -0.4965 H         1 <0>         0.1085
     33 H5          3.6120    0.7003   -2.6186 H         1 <0>         0.1061
     34 H6          1.1972   -0.8061   -3.7214 H         1 <0>         0.0810
     35 H7          2.5613   -0.1861   -4.6823 H         1 <0>         0.0761
     36 H8          2.8531   -2.5955   -4.1740 H         1 <0>         0.0764
     37 H9          4.1208   -1.6198   -3.3935 H         1 <0>         0.0665
     38 H10         1.5707   -2.6271   -2.0520 H         1 <0>         0.0868
     39 H11         3.2008   -3.3043   -1.8234 H         1 <0>         0.0806
     40 H12         3.9855   -1.1206   -0.9491 H         1 <0>         0.1227
     41 H13         0.6966    1.4982   -3.0344 H         1 <0>         0.0874
     42 H14         1.8860    2.4568   -2.1208 H         1 <0>         0.0843
     43 H15         3.7323    3.5507   -3.2523 H         1 <0>         0.1352
     44 H16         4.5522    4.5484   -5.3473 H         1 <0>         0.1389
     45 H17         0.8762    1.2613   -5.4416 H         1 <0>         0.1398
     46 H18         1.9877    1.4288   -8.2165 H         1 <0>         0.3901
     47 H19         5.6909    3.9692   -8.1554 H         1 <0>         0.1221
     48 H20         4.8054    2.4907   -8.5570 H         1 <0>         0.1180
     49 H21         4.8568    6.1833   -9.9634 H         1 <0>         0.1814
     50 H22         3.4918    5.5730  -10.9598 H         1 <0>         0.1685
@<TRIPOS>BOND
     1    1    2 1
     2    1   29 1
     3    1   30 1
     4    1   31 1
     5    2    3 2
     6    2    4 2
     7    2    5 1
     8    5    6 1
     9    6   11 1
    10    6    7 1
    11    6   32 1
    12    7    8 1
    13    7   13 1
    14    7   33 1
    15    8    9 1
    16    8   34 1
    17    8   35 1
    18    9   10 1
    19    9   36 1
    20    9   37 1
    21   10   11 1
    22   10   38 1
    23   10   39 1
    24   11   12 1
    25   11   40 1
    26   13   14 1
    27   13   41 1
    28   13   42 1
    29   14   19 ar
    30   14   15 ar
    31   15   16 ar
    32   15   43 1
    33   16   17 ar
    34   16   44 1
    35   17   18 ar
    36   17   21 1
    37   18   19 ar
    38   18   20 1
    39   19   45 1
    40   20   46 1
    41   21   26 1
    42   21   22 1
    43   22   23 1
    44   22   47 1
    45   22   48 1
    46   23   24 2
    47   23   25 1
    48   25   26 1
    49   25   49 1
    50   25   50 1
    51   26   27 2
    52   26   28 2
@<TRIPOS>MOLECULE
CHEMBL604457__3
   50    52     0     0     0
SMALL
USER_CHARGES

@<TRIPOS>ATOM
      1 C1         -0.0225    1.8097    0.0120 C.3       1 <0>        -0.7015
      2 S1          0.0021   -0.0041    0.0020 S.o2      1 <0>         2.6059
      3 O1          0.8352   -0.4880    1.0465 O.2       1 <0>        -0.9629
      4 O2         -1.3147   -0.5105   -0.1678 O.2       1 <0>        -0.9273
      5 O3          0.7306   -0.3783   -1.2808 O.3       1 <0>        -0.7157
      6 C2          2.1449   -0.1823   -1.2245 C.3       1 <0>         0.1087
      7 C3          2.6521    0.2702   -2.5952 C.3       1 <0>        -0.0840
      8 C4          2.3269   -0.8009   -3.6383 C.3       1 <0>        -0.1172
      9 C5          3.0088   -2.1144   -3.2503 C.3       1 <0>        -0.1252
     10 C6          2.5016   -2.5668   -1.8795 C.3       1 <0>        -0.1257
     11 C7          2.8268   -1.4958   -0.8364 C.3       1 <0>        -0.0291
     12 Cl1         4.6113   -1.2484   -0.7653 Cl        1 <0>        -0.1503
     13 C8          1.9703    1.5837   -2.9832 C.3       1 <0>        -0.0914
     14 C9          2.5583    2.0927   -4.2740 C.ar      1 <0>        -0.0504
     15 C10         3.6566    2.9321   -4.2476 C.ar      1 <0>        -0.1196
     16 C11         4.1998    3.4024   -5.4283 C.ar      1 <0>        -0.0837
     17 C12         3.6429    3.0318   -6.6436 C.ar      1 <0>         0.1298
     18 C13         2.5365    2.1856   -6.6694 C.ar      1 <0>         0.1252
     19 C14         2.0013    1.7145   -5.4819 C.ar      1 <0>        -0.1352
     20 O4          1.9860    1.8192   -7.8580 O.3       1 <0>        -0.4797
     21 N1          4.1908    3.5071   -7.8407 N.pl3     1 <0>        -0.9256
     22 C15         5.3128    2.9299   -8.5904 C.3       1 <0>         0.0173
     23 C16         5.3140    3.3091  -10.0470 C.2       1 <0>         0.3868
     24 O5          5.6467    2.5980  -10.9646 O.2       1 <0>        -0.3829
     25 C17         4.8215    4.7484  -10.1621 C.3       1 <0>        -0.6725
     26 S2          3.6960    4.8473   -8.7155 S.o2      1 <0>         2.5753
     27 O6          2.3549    4.5762   -9.0992 O.2       1 <0>        -0.9167
     28 O7          4.0180    5.9695   -7.9055 O.2       1 <0>        -0.9320
     29 H1          1.0001    2.1870    0.0043 H         1 <0>         0.1284
     30 H2         -0.5497    2.1708   -0.8711 H         1 <0>         0.1365
     31 H3         -0.5327    2.1613    0.9088 H         1 <0>         0.1384
     32 H4          2.3766    0.5808   -0.4813 H         1 <0>         0.1017
     33 H5          3.7310    0.4197   -2.5522 H         1 <0>         0.1100
     34 H6          1.2481   -0.9504   -3.6813 H         1 <0>         0.0787
     35 H7          2.6883   -0.4785   -4.6148 H         1 <0>         0.0755
     36 H8          2.7771   -2.8774   -3.9934 H         1 <0>         0.0731
     37 H9          4.0876   -1.9648   -3.2072 H         1 <0>         0.0734
     38 H10         1.4227   -2.7164   -1.9225 H         1 <0>         0.0901
     39 H11         2.9874   -3.5026   -1.6031 H         1 <0>         0.0829
     40 H12         2.4655   -1.8181    0.1401 H         1 <0>         0.1296
     41 H13         0.9014    1.4137   -3.1130 H         1 <0>         0.0882
     42 H14         2.1280    2.3213   -2.1963 H         1 <0>         0.0812
     43 H15         4.0909    3.2213   -3.3020 H         1 <0>         0.1347
     44 H16         5.0573    4.0586   -5.4048 H         1 <0>         0.1383
     45 H17         1.1464    1.0549   -5.4992 H         1 <0>         0.1395
     46 H18         2.3636    1.0124   -8.2342 H         1 <0>         0.3897
     47 H19         6.2458    3.2686   -8.1399 H         1 <0>         0.1221
     48 H20         5.2644    1.8438   -8.5116 H         1 <0>         0.1182
     49 H21         5.6470    5.4544  -10.0714 H         1 <0>         0.1813
     50 H22         4.2751    4.9033  -11.0924 H         1 <0>         0.1683
@<TRIPOS>BOND
     1    1    2 1
     2    1   29 1
     3    1   30 1
     4    1   31 1
     5    2    3 2
     6    2    4 2
     7    2    5 1
     8    5    6 1
     9    6   11 1
    10    6    7 1
    11    6   32 1
    12    7    8 1
    13    7   13 1
    14    7   33 1
    15    8    9 1
    16    8   34 1
    17    8   35 1
    18    9   10 1
    19    9   36 1
    20    9   37 1
    21   10   11 1
    22   10   38 1
    23   10   39 1
    24   11   12 1
    25   11   40 1
    26   13   14 1
    27   13   41 1
    28   13   42 1
    29   14   19 ar
    30   14   15 ar
    31   15   16 ar
    32   15   43 1
    33   16   17 ar
    34   16   44 1
    35   17   18 ar
    36   17   21 1
    37   18   19 ar
    38   18   20 1
    39   19   45 1
    40   20   46 1
    41   21   26 1
    42   21   22 1
    43   22   23 1
    44   22   47 1
    45   22   48 1
    46   23   24 2
    47   23   25 1
    48   25   26 1
    49   25   49 1
    50   25   50 1
    51   26   27 2
    52   26   28 2
@<TRIPOS>MOLECULE
CHEMBL604457__4
   50    52     0     0     0
SMALL
USER_CHARGES

@<TRIPOS>ATOM
      1 C1          0.3165   -1.7155    0.9530 C.3       1 <0>        -0.7021
      2 S1          0.0168   -0.1757    0.0420 S.o2      1 <0>         2.6059
      3 O1         -1.3346   -0.1197   -0.3934 O.2       1 <0>        -0.9275
      4 O2          0.6025    0.9215    0.7294 O.2       1 <0>        -0.9627
      5 O3          0.8314   -0.3126   -1.2363 O.3       1 <0>        -0.7156
      6 C2          2.2385   -0.1479   -1.0494 C.3       1 <0>         0.1085
      7 C3          2.9913   -1.1192   -1.9608 C.3       1 <0>        -0.0850
      8 C4          2.6334   -0.8306   -3.4201 C.3       1 <0>        -0.1176
      9 C5          3.0294    0.6058   -3.7678 C.3       1 <0>        -0.1252
     10 C6          2.2766    1.5771   -2.8564 C.3       1 <0>        -0.1255
     11 C7          2.6345    1.2885   -1.3971 C.3       1 <0>        -0.0269
     12 Cl1         4.4098    1.4964   -1.1612 Cl        1 <0>        -0.1503
     13 C8          2.5953   -2.5556   -1.6131 C.3       1 <0>        -0.0921
     14 C9          3.4259   -3.5161   -2.4247 C.ar      1 <0>        -0.0502
     15 C10         2.9816   -3.9331   -3.6658 C.ar      1 <0>        -0.1173
     16 C11         3.7390   -4.8143   -4.4144 C.ar      1 <0>        -0.0842
     17 C12         4.9482   -5.2818   -3.9207 C.ar      1 <0>         0.1301
     18 C13         5.3953   -4.8607   -2.6702 C.ar      1 <0>         0.1257
     19 C14         4.6328   -3.9736   -1.9286 C.ar      1 <0>        -0.1378
     20 O4          6.5798   -5.3161   -2.1809 O.3       1 <0>        -0.4802
     21 N1          5.7168   -6.1745   -4.6766 N.pl3     1 <0>        -0.9256
     22 C15         6.6883   -5.8380   -5.7240 C.3       1 <0>         0.0173
     23 C16         7.7130   -6.9160   -5.9549 C.2       1 <0>         0.3868
     24 O5          8.8772   -6.7418   -6.2241 O.2       1 <0>        -0.3829
     25 C17         7.0243   -8.2673   -5.7895 C.3       1 <0>        -0.6725
     26 S2          5.7219   -7.8462   -4.5666 S.o2      1 <0>         2.5751
     27 O6          6.1558   -8.1384   -3.2454 O.2       1 <0>        -0.9170
     28 O7          4.4447   -8.2611   -5.0313 O.2       1 <0>        -0.9316
     29 H1          0.0275   -2.5654    0.3349 H         1 <0>         0.1365
     30 H2          1.3751   -1.7903    1.2017 H         1 <0>         0.1286
     31 H3         -0.2730   -1.7158    1.8698 H         1 <0>         0.1386
     32 H4          2.4935   -0.3535   -0.0098 H         1 <0>         0.1017
     33 H5          4.0646   -0.9936   -1.8182 H         1 <0>         0.1092
     34 H6          3.1697   -1.5226   -4.0694 H         1 <0>         0.0773
     35 H7          1.5601   -0.9563   -3.5627 H         1 <0>         0.0791
     36 H8          4.1027    0.7314   -3.6252 H         1 <0>         0.0730
     37 H9          2.7744    0.8114   -4.8074 H         1 <0>         0.0735
     38 H10         2.5587    2.6005   -3.1041 H         1 <0>         0.0827
     39 H11         1.2033    1.4515   -2.9990 H         1 <0>         0.0907
     40 H12         2.0982    1.9805   -0.7478 H         1 <0>         0.1275
     41 H13         2.7679   -2.7333   -0.5516 H         1 <0>         0.0800
     42 H14         1.5399   -2.7066   -1.8398 H         1 <0>         0.0892
     43 H15         2.0404   -3.5698   -4.0511 H         1 <0>         0.1368
     44 H16         3.3894   -5.1390   -5.3833 H         1 <0>         0.1387
     45 H17         4.9792   -3.6421   -0.9608 H         1 <0>         0.1374
     46 H18         7.3401   -4.7677   -2.4178 H         1 <0>         0.3899
     47 H19         6.1510   -5.6606   -6.6556 H         1 <0>         0.1223
     48 H20         7.2037   -4.9201   -5.4412 H         1 <0>         0.1181
     49 H21         6.5904   -8.6048   -6.7308 H         1 <0>         0.1814
     50 H22         7.7112   -9.0115   -5.3867 H         1 <0>         0.1683
@<TRIPOS>BOND
     1    1    2 1
     2    1   29 1
     3    1   30 1
     4    1   31 1
     5    2    3 2
     6    2    4 2
     7    2    5 1
     8    5    6 1
     9    6   11 1
    10    6    7 1
    11    6   32 1
    12    7    8 1
    13    7   13 1
    14    7   33 1
    15    8    9 1
    16    8   34 1
    17    8   35 1
    18    9   10 1
    19    9   36 1
    20    9   37 1
    21   10   11 1
    22   10   38 1
    23   10   39 1
    24   11   12 1
    25   11   40 1
    26   13   14 1
    27   13   41 1
    28   13   42 1
    29   14   19 ar
    30   14   15 ar
    31   15   16 ar
    32   15   43 1
    33   16   17 ar
    34   16   44 1
    35   17   18 ar
    36   17   21 1
    37   18   19 ar
    38   18   20 1
    39   19   45 1
    40   20   46 1
    41   21   26 1
    42   21   22 1
    43   22   23 1
    44   22   47 1
    45   22   48 1
    46   23   24 2
    47   23   25 1
    48   25   26 1
    49   25   49 1
    50   25   50 1
    51   26   27 2
    52   26   28 2
@<TRIPOS>MOLECULE
CHEMBL604457__5
   50    52     0     0     0
SMALL
USER_CHARGES

@<TRIPOS>ATOM
      1 C1          0.6731    0.5266    1.4144 C.3       1 <0>        -0.6997
      2 S1          0.3977   -0.8564    0.2733 S.o2      1 <0>         2.6052
      3 O1          1.3499   -1.8841    0.5110 O.2       1 <0>        -0.9600
      4 O2         -0.9888   -1.1575    0.1948 O.2       1 <0>        -0.9303
      5 O3          0.7541   -0.3069   -1.1005 O.3       1 <0>        -0.7146
      6 C2          2.1580   -0.1544   -1.3192 C.3       1 <0>         0.1031
      7 C3          2.6162   -1.1389   -2.3970 C.3       1 <0>        -0.0866
      8 C4          1.8637   -0.8566   -3.6988 C.3       1 <0>        -0.1239
      9 C5          2.1561    0.5736   -4.1570 C.3       1 <0>        -0.1185
     10 C6          1.6979    1.5582   -3.0793 C.3       1 <0>        -0.1235
     11 C7          2.4504    1.2758   -1.7774 C.3       1 <0>        -0.0117
     12 Cl1         1.9105    2.4361   -0.5073 Cl        1 <0>        -0.1710
     13 C8          2.3238   -2.5691   -1.9388 C.3       1 <0>        -0.0914
     14 C9          2.9077   -3.5432   -2.9293 C.ar      1 <0>        -0.0465
     15 C10         2.1497   -3.9723   -4.0030 C.ar      1 <0>        -0.1202
     16 C11         2.6799   -4.8661   -4.9144 C.ar      1 <0>        -0.0842
     17 C12         3.9758   -5.3341   -4.7528 C.ar      1 <0>         0.1274
     18 C13         4.7391   -4.9008   -3.6709 C.ar      1 <0>         0.1249
     19 C14         4.2022   -4.0011   -2.7650 C.ar      1 <0>        -0.1373
     20 O4          6.0101   -5.3566   -3.5072 O.3       1 <0>        -0.4797
     21 N1          4.5149   -6.2395   -5.6741 N.pl3     1 <0>        -0.9249
     22 C15         5.1747   -5.9201   -6.9456 C.3       1 <0>         0.0177
     23 C16         6.0995   -7.0061   -7.4262 C.2       1 <0>         0.3870
     24 O5          7.1511   -6.8410   -7.9964 O.2       1 <0>        -0.3841
     25 C17         5.4767   -8.3517   -7.0672 C.3       1 <0>        -0.6732
     26 S2          4.5457   -7.9097   -5.5484 S.o2      1 <0>         2.5750
     27 O6          5.3138   -8.1888   -4.3858 O.2       1 <0>        -0.9165
     28 O7          3.1903   -8.3234   -5.6528 O.2       1 <0>        -0.9313
     29 H1          1.7119    0.8502    1.3490 H         1 <0>         0.1302
     30 H2          0.0170    1.3548    1.1466 H         1 <0>         0.1337
     31 H3          0.4559    0.2058    2.4332 H         1 <0>         0.1342
     32 H4          2.6942   -0.3555   -0.3917 H         1 <0>         0.1093
     33 H5          3.6871   -1.0226   -2.5638 H         1 <0>         0.1035
     34 H6          2.1901   -1.5580   -4.4666 H         1 <0>         0.0796
     35 H7          0.7928   -0.9729   -3.5320 H         1 <0>         0.0800
     36 H8          3.2269    0.6899   -4.3238 H         1 <0>         0.0667
     37 H9          1.6199    0.7748   -5.0845 H         1 <0>         0.0778
     38 H10         1.9062    2.5771   -3.4057 H         1 <0>         0.0811
     39 H11         0.6270    1.4419   -2.9125 H         1 <0>         0.0896
     40 H12         3.5213    1.3921   -1.9442 H         1 <0>         0.1283
     41 H13         2.7712   -2.7353   -0.9588 H         1 <0>         0.1068
     42 H14         1.2458   -2.7172   -1.8758 H         1 <0>         0.0789
     43 H15         1.1407   -3.6086   -4.1297 H         1 <0>         0.1354
     44 H16         2.0854   -5.2002   -5.7518 H         1 <0>         0.1380
     45 H17         4.7932   -3.6602   -1.9278 H         1 <0>         0.1386
     46 H18         6.6815   -4.8149   -3.9440 H         1 <0>         0.3885
     47 H19         4.4101   -5.7508   -7.7037 H         1 <0>         0.1217
     48 H20         5.7485   -5.0018   -6.8210 H         1 <0>         0.1176
     49 H21         4.8082   -8.6979   -7.8556 H         1 <0>         0.1811
     50 H22         6.2444   -9.0948   -6.8515 H         1 <0>         0.1681
@<TRIPOS>BOND
     1    1    2 1
     2    1   29 1
     3    1   30 1
     4    1   31 1
     5    2    3 2
     6    2    4 2
     7    2    5 1
     8    5    6 1
     9    6   11 1
    10    6    7 1
    11    6   32 1
    12    7    8 1
    13    7   13 1
    14    7   33 1
    15    8    9 1
    16    8   34 1
    17    8   35 1
    18    9   10 1
    19    9   36 1
    20    9   37 1
    21   10   11 1
    22   10   38 1
    23   10   39 1
    24   11   12 1
    25   11   40 1
    26   13   14 1
    27   13   41 1
    28   13   42 1
    29   14   19 ar
    30   14   15 ar
    31   15   16 ar
    32   15   43 1
    33   16   17 ar
    34   16   44 1
    35   17   18 ar
    36   17   21 1
    37   18   19 ar
    38   18   20 1
    39   19   45 1
    40   20   46 1
    41   21   26 1
    42   21   22 1
    43   22   23 1
    44   22   47 1
    45   22   48 1
    46   23   24 2
    47   23   25 1
    48   25   26 1
    49   25   49 1
    50   25   50 1
    51   26   27 2
    52   26   28 2
@<TRIPOS>MOLECULE
CHEMBL604457__6
   50    52     0     0     0
SMALL
USER_CHARGES

@<TRIPOS>ATOM
      1 C1          0.5753    0.4617    1.3828 C.3       1 <0>        -0.6990
      2 S1          0.3373   -0.8977    0.2056 S.o2      1 <0>         2.6045
      3 O1          1.2931   -1.9224    0.4414 O.2       1 <0>        -0.9584
      4 O2         -1.0445   -1.2087    0.0898 O.2       1 <0>        -0.9298
      5 O3          0.7188   -0.3147   -1.1475 O.3       1 <0>        -0.7202
      6 C2          2.1262   -0.1528   -1.3347 C.3       1 <0>         0.1035
      7 C3          2.6162   -1.1389   -2.3970 C.3       1 <0>        -0.0892
      8 C4          4.1231   -0.9656   -2.5973 C.3       1 <0>        -0.1230
      9 C5          4.4155    0.4646   -3.0556 C.3       1 <0>        -0.1236
     10 C6          3.9255    1.4507   -1.9933 C.3       1 <0>        -0.1249
     11 C7          2.4186    1.2774   -1.7929 C.3       1 <0>        -0.0114
     12 Cl1         1.8412    2.4394   -0.5411 Cl        1 <0>        -0.1702
     13 C8          2.3238   -2.5691   -1.9388 C.3       1 <0>        -0.0841
     14 C9          2.6860   -3.5331   -3.0391 C.ar      1 <0>        -0.0481
     15 C10         1.7422   -3.8838   -3.9866 C.ar      1 <0>        -0.1204
     16 C11         2.0686   -4.7678   -4.9978 C.ar      1 <0>        -0.0831
     17 C12         3.3460   -5.3049   -5.0635 C.ar      1 <0>         0.1275
     18 C13         4.2965   -4.9505   -4.1086 C.ar      1 <0>         0.1243
     19 C14         3.9629   -4.0600   -3.1015 C.ar      1 <0>        -0.1371
     20 O4          5.5504   -5.4743   -4.1677 O.3       1 <0>        -0.4793
     21 N1          3.6789   -6.2006   -6.0862 N.pl3     1 <0>        -0.9249
     22 C15         4.1413   -5.8668   -7.4385 C.3       1 <0>         0.0176
     23 C16         4.9155   -6.9783   -8.0948 C.2       1 <0>         0.3871
     24 O5          5.8687   -6.8440   -8.8240 O.2       1 <0>        -0.3841
     25 C17         4.2861   -8.3041   -7.6781 C.3       1 <0>        -0.6731
     26 S2          3.6382   -7.8739   -6.0156 S.o2      1 <0>         2.5750
     27 O6          4.5674   -8.2338   -5.0025 O.2       1 <0>        -0.9165
     28 O7          2.2631   -8.2160   -5.9093 O.2       1 <0>        -0.9312
     29 H1          1.6101    0.8015    1.3410 H         1 <0>         0.1297
     30 H2         -0.0887    1.2866    1.1244 H         1 <0>         0.1341
     31 H3          0.3475    0.1139    2.3904 H         1 <0>         0.1357
     32 H4          2.6424   -0.3457   -0.3942 H         1 <0>         0.1090
     33 H5          2.1001   -0.9460   -3.3374 H         1 <0>         0.0989
     34 H6          4.6393   -1.1585   -1.6569 H         1 <0>         0.0763
     35 H7          4.4722   -1.6681   -3.3541 H         1 <0>         0.0865
     36 H8          5.4890    0.5880   -3.1983 H         1 <0>         0.0823
     37 H9          3.8994    0.6575   -3.9960 H         1 <0>         0.0727
     38 H10         4.4417    1.2578   -1.0528 H         1 <0>         0.0829
     39 H11         4.1338    2.4696   -2.3197 H         1 <0>         0.0911
     40 H12         1.9025    1.4703   -2.7334 H         1 <0>         0.1245
     41 H13         2.9138   -2.7937   -1.0502 H         1 <0>         0.1012
     42 H14         1.2636   -2.6662   -1.7050 H         1 <0>         0.0776
     43 H15         0.7474   -3.4663   -3.9364 H         1 <0>         0.1350
     44 H16         1.3293   -5.0406   -5.7363 H         1 <0>         0.1383
     45 H17         4.6991   -3.7803   -2.3625 H         1 <0>         0.1393
     46 H18         6.1711   -4.9503   -4.6924 H         1 <0>         0.3882
     47 H19         3.2747   -5.6317   -8.0565 H         1 <0>         0.1217
     48 H20         4.7770   -4.9831   -7.3828 H         1 <0>         0.1177
     49 H21         3.4812   -8.5871   -8.3565 H         1 <0>         0.1811
     50 H22         5.0368   -9.0916   -7.6122 H         1 <0>         0.1681
@<TRIPOS>BOND
     1    1    2 1
     2    1   29 1
     3    1   30 1
     4    1   31 1
     5    2    3 2
     6    2    4 2
     7    2    5 1
     8    5    6 1
     9    6   11 1
    10    6    7 1
    11    6   32 1
    12    7    8 1
    13    7   13 1
    14    7   33 1
    15    8    9 1
    16    8   34 1
    17    8   35 1
    18    9   10 1
    19    9   36 1
    20    9   37 1
    21   10   11 1
    22   10   38 1
    23   10   39 1
    24   11   12 1
    25   11   40 1
    26   13   14 1
    27   13   41 1
    28   13   42 1
    29   14   19 ar
    30   14   15 ar
    31   15   16 ar
    32   15   43 1
    33   16   17 ar
    34   16   44 1
    35   17   18 ar
    36   17   21 1
    37   18   19 ar
    38   18   20 1
    39   19   45 1
    40   20   46 1
    41   21   26 1
    42   21   22 1
    43   22   23 1
    44   22   47 1
    45   22   48 1
    46   23   24 2
    47   23   25 1
    48   25   26 1
    49   25   49 1
    50   25   50 1
    51   26   27 2
    52   26   28 2
@<TRIPOS>MOLECULE
CHEMBL604457__7
   50    52     0     0     0
SMALL
USER_CHARGES

@<TRIPOS>ATOM
      1 C1          0.3165   -1.7155    0.9530 C.3       1 <0>        -0.7037
      2 S1          0.0169   -0.1757    0.0421 S.o2      1 <0>         2.6067
      3 O1         -1.3346   -0.1197   -0.3934 O.2       1 <0>        -0.9262
      4 O2          0.6025    0.9215    0.7294 O.2       1 <0>        -0.9658
      5 O3          0.8314   -0.3126   -1.2363 O.3       1 <0>        -0.7158
      6 C2          2.2385   -0.1479   -1.0494 C.3       1 <0>         0.1081
      7 C3          2.9913   -1.1192   -1.9608 C.3       1 <0>        -0.0869
      8 C4          4.4978   -0.9428   -1.7607 C.3       1 <0>        -0.1189
      9 C5          4.8938    0.4935   -2.1084 C.3       1 <0>        -0.1304
     10 C6          4.1410    1.4649   -1.1969 C.3       1 <0>        -0.1237
     11 C7          2.6345    1.2885   -1.3971 C.3       1 <0>        -0.0289
     12 Cl1         2.2127    1.6286   -3.1168 Cl        1 <0>        -0.1526
     13 C8          2.5953   -2.5556   -1.6131 C.3       1 <0>        -0.0915
     14 C9          3.2410   -3.5050   -2.5892 C.ar      1 <0>        -0.0502
     15 C10         2.5839   -3.8456   -3.7570 C.ar      1 <0>        -0.1169
     16 C11         3.1712   -4.7162   -4.6557 C.ar      1 <0>        -0.0832
     17 C12         4.4231   -5.2499   -4.3868 C.ar      1 <0>         0.1301
     18 C13         5.0847   -4.9058   -3.2101 C.ar      1 <0>         0.1243
     19 C14         4.4916   -4.0287   -2.3172 C.ar      1 <0>        -0.1379
     20 O4          6.3121   -5.4263   -2.9409 O.3       1 <0>        -0.4798
     21 N1          5.0197   -6.1321   -5.2950 N.pl3     1 <0>        -0.9256
     22 C15         5.8221   -5.7804   -6.4725 C.3       1 <0>         0.0172
     23 C16         6.7483   -6.8821   -6.9130 C.2       1 <0>         0.3869
     24 O5          7.8599   -6.7368   -7.3619 O.2       1 <0>        -0.3831
     25 C17         6.0379   -8.2142   -6.6935 C.3       1 <0>        -0.6725
     26 S2          4.9704   -7.8062   -5.2572 S.o2      1 <0>         2.5753
     27 O6          5.5998   -8.1770   -4.0383 O.2       1 <0>        -0.9172
     28 O7          3.6181   -8.1523   -5.5231 O.2       1 <0>        -0.9315
     29 H1          0.0270   -2.5655    0.3350 H         1 <0>         0.1364
     30 H2          1.3752   -1.7907    1.2012 H         1 <0>         0.1276
     31 H3         -0.2726   -1.7157    1.8700 H         1 <0>         0.1382
     32 H4          2.4935   -0.3535   -0.0098 H         1 <0>         0.1063
     33 H5          2.7363   -0.9136   -3.0004 H         1 <0>         0.1089
     34 H6          4.7528   -1.1485   -0.7210 H         1 <0>         0.0707
     35 H7          5.0341   -1.6349   -2.4100 H         1 <0>         0.0845
     36 H8          5.9671    0.6192   -1.9658 H         1 <0>         0.0766
     37 H9          4.6388    0.6992   -3.1480 H         1 <0>         0.0781
     38 H10         4.3960    1.2593   -0.1573 H         1 <0>         0.0879
     39 H11         4.4231    2.4882   -1.4446 H         1 <0>         0.0893
     40 H12         2.0982    1.9805   -0.7478 H         1 <0>         0.1276
     41 H13         2.9299   -2.7903   -0.6026 H         1 <0>         0.0813
     42 H14         1.5116   -2.6577   -1.6699 H         1 <0>         0.0872
     43 H15         1.6092   -3.4306   -3.9673 H         1 <0>         0.1367
     44 H16         2.6554   -4.9811   -5.5669 H         1 <0>         0.1388
     45 H17         5.0042   -3.7568   -1.4063 H         1 <0>         0.1381
     46 H18         7.0470   -4.8946   -3.2762 H         1 <0>         0.3893
     47 H19         5.1491   -5.5393   -7.2953 H         1 <0>         0.1223
     48 H20         6.4157   -4.8963   -6.2400 H         1 <0>         0.1181
     49 H21         5.4430   -8.4902   -7.5641 H         1 <0>         0.1814
     50 H22         6.7483   -9.0011   -6.4401 H         1 <0>         0.1683
@<TRIPOS>BOND
     1    1    2 1
     2    1   29 1
     3    1   30 1
     4    1   31 1
     5    2    3 2
     6    2    4 2
     7    2    5 1
     8    5    6 1
     9    6   11 1
    10    6    7 1
    11    6   32 1
    12    7    8 1
    13    7   13 1
    14    7   33 1
    15    8    9 1
    16    8   34 1
    17    8   35 1
    18    9   10 1
    19    9   36 1
    20    9   37 1
    21   10   11 1
    22   10   38 1
    23   10   39 1
    24   11   12 1
    25   11   40 1
    26   13   14 1
    27   13   41 1
    28   13   42 1
    29   14   19 ar
    30   14   15 ar
    31   15   16 ar
    32   15   43 1
    33   16   17 ar
    34   16   44 1
    35   17   18 ar
    36   17   21 1
    37   18   19 ar
    38   18   20 1
    39   19   45 1
    40   20   46 1
    41   21   26 1
    42   21   22 1
    43   22   23 1
    44   22   47 1
    45   22   48 1
    46   23   24 2
    47   23   25 1
    48   25   26 1
    49   25   49 1
    50   25   50 1
    51   26   27 2
    52   26   28 2
@<TRIPOS>MOLECULE
CHEMBL591978
   51    55     0     0     0
SMALL
USER_CHARGES

@<TRIPOS>ATOM
      1 C1          0.0111    1.3763    0.2564 C.ar      1 <0>        -0.1014
      2 C2          1.1674    2.0882    0.0054 C.ar      1 <0>        -0.1093
      3 C3          2.3583    1.4139   -0.2579 C.ar      1 <0>        -0.0348
      4 C4          2.3787    0.0218   -0.2666 C.ar      1 <0>        -0.1123
      5 C5          1.2133   -0.6863   -0.0131 C.ar      1 <0>         0.1613
      6 C6          0.0298   -0.0052    0.2480 C.ar      1 <0>        -0.1207
      7 N1          1.2285   -2.0835   -0.0212 N.pl3     1 <0>        -0.5813
      8 C7          1.9312   -2.9210    0.9545 C.3       1 <0>         0.1215
      9 C8          1.6462   -4.3687    0.5224 C.3       1 <0>        -0.0810
     10 C9          0.7746   -4.2340   -0.7060 C.ar      1 <0>        -0.1754
     11 C10         0.5715   -2.8852   -0.9565 C.ar      1 <0>         0.2220
     12 C11        -0.2135   -2.5089   -2.0479 C.ar      1 <0>        -0.2097
     13 C12        -0.7806   -3.4699   -2.8613 C.ar      1 <0>         0.1430
     14 C13        -0.5744   -4.8140   -2.5990 C.ar      1 <0>        -0.1994
     15 C14         0.2086   -5.1923   -1.5243 C.ar      1 <0>        -0.0337
     16 F1         -1.5391   -3.0979   -3.9156 F         1 <0>        -0.1368
     17 C15         3.6014    2.1778   -0.5287 C.ar      1 <0>        -0.0352
     18 C16         4.7913    1.5045   -0.7977 C.ar      1 <0>        -0.1127
     19 C17         5.9444    2.2199   -1.0494 C.ar      1 <0>        -0.0954
     20 C18         5.9203    3.6029   -1.0349 C.ar      1 <0>        -0.1236
     21 C19         4.7420    4.2764   -0.7680 C.ar      1 <0>        -0.0893
     22 C20         3.5818    3.5710   -0.5206 C.ar      1 <0>        -0.1063
     23 C21         7.1826    4.3786   -1.3105 C.3       1 <0>         0.2055
     24 N2          7.2919    4.6388   -2.7480 N.pl3     1 <0>        -0.9880
     25 C22         7.8444    3.7604   -3.7882 C.3       1 <0>         0.0456
     26 C23         7.7715    4.3980   -5.1380 C.2       1 <0>         0.5137
     27 O1          8.1721    3.8476   -6.1418 O.2       1 <0>        -0.4617
     28 N3          7.2292    5.6246   -5.1555 N.am      1 <0>        -1.0430
     29 S1          6.8110    5.9997   -3.5872 S.o2      1 <0>         2.7547
     30 O2          5.3923    6.0539   -3.5272 O.2       1 <0>        -0.9420
     31 O3          7.6492    7.0698   -3.1730 O.2       1 <0>        -0.9477
     32 H1         -0.9097    1.9009    0.4642 H         1 <0>         0.1318
     33 H2          1.1488    3.1680    0.0127 H         1 <0>         0.1308
     34 H3          3.2992   -0.5051   -0.4704 H         1 <0>         0.1285
     35 H4         -0.8772   -0.5574    0.4449 H         1 <0>         0.1263
     36 H5          3.0022   -2.7209    0.9228 H         1 <0>         0.0727
     37 H6          1.5418   -2.7419    1.9566 H         1 <0>         0.0742
     38 H7          2.5755   -4.8817    0.2750 H         1 <0>         0.0893
     39 H8          1.1139   -4.9027    1.3096 H         1 <0>         0.0897
     40 H9         -0.3782   -1.4622   -2.2566 H         1 <0>         0.1299
     41 H10        -1.0192   -5.5645   -3.2357 H         1 <0>         0.1371
     42 H11         0.3701   -6.2400   -1.3181 H         1 <0>         0.1337
     43 H12         4.8112    0.4247   -0.8089 H         1 <0>         0.1258
     44 H13         6.8673    1.6990   -1.2576 H         1 <0>         0.1271
     45 H14         4.7289    5.3563   -0.7576 H         1 <0>         0.1267
     46 H15         2.6613    4.0979   -0.3172 H         1 <0>         0.1295
     47 H16         7.1523    5.3253   -0.7711 H         1 <0>         0.0994
     48 H17         8.0446    3.7993   -0.9795 H         1 <0>         0.1027
     49 H18         8.8859    3.5411   -3.5533 H         1 <0>         0.1355
     50 H19         7.2805    2.8277   -3.8036 H         1 <0>         0.1321
     51 H20         7.1011    6.1865   -5.9357 H         1 <0>         0.4503
@<TRIPOS>BOND
     1    1    6 ar
     2    1    2 ar
     3    1   32 1
     4    2    3 ar
     5    2   33 1
     6    3    4 ar
     7    3   17 1
     8    4    5 ar
     9    4   34 1
    10    5    6 ar
    11    5    7 1
    12    6   35 1
    13    7   11 1
    14    7    8 1
    15    8    9 1
    16    8   36 1
    17    8   37 1
    18    9   10 1
    19    9   38 1
    20    9   39 1
    21   10   15 ar
    22   10   11 ar
    23   11   12 ar
    24   12   13 ar
    25   12   40 1
    26   13   14 ar
    27   13   16 1
    28   14   15 ar
    29   14   41 1
    30   15   42 1
    31   17   22 ar
    32   17   18 ar
    33   18   19 ar
    34   18   43 1
    35   19   20 ar
    36   19   44 1
    37   20   21 ar
    38   20   23 1
    39   21   22 ar
    40   21   45 1
    41   22   46 1
    42   23   24 1
    43   23   47 1
    44   23   48 1
    45   24   29 1
    46   24   25 1
    47   25   26 1
    48   25   49 1
    49   25   50 1
    50   26   27 2
    51   26   28 am
    52   28   29 1
    53   28   51 1
    54   29   30 2
    55   29   31 2
@<TRIPOS>MOLECULE
CHEMBL591978__1
   50    54     0     0     0
SMALL
USER_CHARGES

@<TRIPOS>ATOM
      1 C1          0.0111    1.3763    0.2564 C.ar      1 <0>        -0.1020
      2 C2          1.1674    2.0882    0.0054 C.ar      1 <0>        -0.1123
      3 C3          2.3583    1.4139   -0.2579 C.ar      1 <0>        -0.0195
      4 C4          2.3787    0.0218   -0.2666 C.ar      1 <0>        -0.1153
      5 C5          1.2133   -0.6863   -0.0131 C.ar      1 <0>         0.1576
      6 C6          0.0298   -0.0052    0.2480 C.ar      1 <0>        -0.1277
      7 N1          1.2285   -2.0835   -0.0212 N.pl3     1 <0>        -0.5787
      8 C7          1.9312   -2.9210    0.9545 C.3       1 <0>         0.1208
      9 C8          1.6462   -4.3687    0.5224 C.3       1 <0>        -0.0797
     10 C9          0.7746   -4.2340   -0.7060 C.ar      1 <0>        -0.1782
     11 C10         0.5715   -2.8852   -0.9565 C.ar      1 <0>         0.2255
     12 C11        -0.2135   -2.5089   -2.0479 C.ar      1 <0>        -0.2094
     13 C12        -0.7806   -3.4699   -2.8613 C.ar      1 <0>         0.1435
     14 C13        -0.5744   -4.8140   -2.5990 C.ar      1 <0>        -0.2028
     15 C14         0.2086   -5.1923   -1.5243 C.ar      1 <0>        -0.0344
     16 F1         -1.5391   -3.0979   -3.9156 F         1 <0>        -0.1374
     17 C15         3.6014    2.1778   -0.5287 C.ar      1 <0>        -0.0559
     18 C16         4.7913    1.5045   -0.7977 C.ar      1 <0>        -0.1109
     19 C17         5.9444    2.2199   -1.0494 C.ar      1 <0>        -0.1000
     20 C18         5.9203    3.6029   -1.0349 C.ar      1 <0>        -0.0995
     21 C19         4.7420    4.2764   -0.7680 C.ar      1 <0>        -0.0903
     22 C20         3.5818    3.5710   -0.5206 C.ar      1 <0>        -0.1041
     23 C21         7.1826    4.3786   -1.3105 C.3       1 <0>         0.2093
     24 N2          7.2919    4.6388   -2.7480 N.pl3     1 <0>        -1.0061
     25 C22         7.8434    3.7675   -3.7987 C.3       1 <0>         0.0386
     26 C23         7.7601    4.4264   -5.1376 C.2       1 <0>         0.4490
     27 O1          8.2040    3.8211   -6.2587 O.3       1 <0>        -0.6489
     28 N3          7.2430    5.5985   -5.1605 N.2       1 <0>        -0.9372
     29 S1          6.8145    5.9951   -3.6001 S.o2      1 <0>         2.6433
     30 O2          5.3955    6.0505   -3.5485 O.2       1 <0>        -1.0086
     31 O3          7.6520    7.0683   -3.1927 O.2       1 <0>        -1.0154
     32 H1         -0.9097    1.9009    0.4642 H         1 <0>         0.1293
     33 H2          1.1488    3.1680    0.0127 H         1 <0>         0.1310
     34 H3          3.2992   -0.5051   -0.4704 H         1 <0>         0.1284
     35 H4         -0.8772   -0.5574    0.4449 H         1 <0>         0.1232
     36 H5          3.0022   -2.7209    0.9228 H         1 <0>         0.0734
     37 H6          1.5418   -2.7419    1.9566 H         1 <0>         0.0733
     38 H7          2.5755   -4.8817    0.2750 H         1 <0>         0.0885
     39 H8          1.1139   -4.9027    1.3096 H         1 <0>         0.0878
     40 H9         -0.3782   -1.4622   -2.2566 H         1 <0>         0.1311
     41 H10        -1.0192   -5.5645   -3.2357 H         1 <0>         0.1355
     42 H11         0.3701   -6.2400   -1.3181 H         1 <0>         0.1320
     43 H12         4.8112    0.4247   -0.8089 H         1 <0>         0.1215
     44 H13         6.8673    1.6990   -1.2576 H         1 <0>         0.1250
     45 H14         4.7289    5.3563   -0.7576 H         1 <0>         0.1261
     46 H15         2.6613    4.0979   -0.3172 H         1 <0>         0.1254
     47 H16         7.1523    5.3253   -0.7711 H         1 <0>         0.0840
     48 H17         8.0446    3.7993   -0.9795 H         1 <0>         0.0826
     49 H18         8.8867    3.5484   -3.5714 H         1 <0>         0.0956
     50 H19         7.2801    2.8346   -3.8228 H         1 <0>         0.0929
@<TRIPOS>BOND
     1    1    6 ar
     2    1    2 ar
     3    1   32 1
     4    2    3 ar
     5    2   33 1
     6    3    4 ar
     7    3   17 1
     8    4    5 ar
     9    4   34 1
    10    5    6 ar
    11    5    7 1
    12    6   35 1
    13    7   11 1
    14    7    8 1
    15    8    9 1
    16    8   36 1
    17    8   37 1
    18    9   10 1
    19    9   38 1
    20    9   39 1
    21   10   15 ar
    22   10   11 ar
    23   11   12 ar
    24   12   13 ar
    25   12   40 1
    26   13   14 ar
    27   13   16 1
    28   14   15 ar
    29   14   41 1
    30   15   42 1
    31   17   22 ar
    32   17   18 ar
    33   18   19 ar
    34   18   43 1
    35   19   20 ar
    36   19   44 1
    37   20   21 ar
    38   20   23 1
    39   21   22 ar
    40   21   45 1
    41   22   46 1
    42   23   24 1
    43   23   47 1
    44   23   48 1
    45   24   29 1
    46   24   25 1
    47   25   26 1
    48   25   49 1
    49   25   50 1
    50   26   27 1
    51   26   28 2
    52   28   29 1
    53   29   30 2
    54   29   31 2
@<TRIPOS>MOLECULE
CHEMBL592291
   33    35     0     0     0
SMALL
USER_CHARGES

@<TRIPOS>ATOM
      1 C1         -0.0173    1.4248    0.0099 C.3       1 <0>         0.0246
      2 O1          0.0021   -0.0041    0.0020 O.3       1 <0>        -0.3153
      3 C2         -1.2004   -0.6375    0.0101 C.ar      1 <0>         0.1317
      4 C3         -2.3775    0.1167    0.0196 C.ar      1 <0>        -0.1771
      5 C4         -3.5958   -0.4888    0.0273 C.ar      1 <0>        -0.0663
      6 C5         -3.6775   -1.8918    0.0258 C.ar      1 <0>        -0.0599
      7 C6         -4.9220   -2.5467    0.0331 C.ar      1 <0>        -0.1120
      8 C7         -4.9693   -3.9091    0.0311 C.ar      1 <0>         0.1059
      9 C8         -3.7886   -4.6699    0.0221 C.ar      1 <0>         0.1484
     10 C9         -2.5655   -4.0622    0.0149 C.ar      1 <0>        -0.0731
     11 C10        -2.4854   -2.6589    0.0163 C.ar      1 <0>        -0.0188
     12 C11        -1.2432   -2.0026    0.0032 C.ar      1 <0>        -0.1449
     13 N1         -3.8664   -6.0654    0.0212 N.pl3     1 <0>        -0.9415
     14 C12        -3.8147   -6.9764    1.1729 C.3       1 <0>         0.0477
     15 C13        -3.9330   -8.4040    0.7468 C.2       1 <0>         0.5167
     16 O2         -3.9145   -9.3241    1.5367 O.2       1 <0>        -0.4579
     17 N2         -4.0615   -8.5909   -0.5751 N.am      1 <0>        -1.0416
     18 S1         -4.0471   -7.0854   -1.2882 S.o2      1 <0>         2.7589
     19 O3         -5.3425   -6.8575   -1.8259 O.2       1 <0>        -0.9430
     20 O4         -2.8572   -6.9971   -2.0600 O.2       1 <0>        -0.9400
     21 O5         -6.1742   -4.5392    0.0382 O.3       1 <0>        -0.4905
     22 H1          1.0053    1.8021    0.0021 H         1 <0>         0.1031
     23 H2         -0.5445    1.7859   -0.8732 H         1 <0>         0.0576
     24 H3         -0.5275    1.7763    0.9067 H         1 <0>         0.0575
     25 H4         -2.3188    1.1951    0.0211 H         1 <0>         0.1353
     26 H5         -4.4968    0.1066    0.0350 H         1 <0>         0.1376
     27 H6         -5.8367   -1.9725    0.0407 H         1 <0>         0.1441
     28 H7         -1.6641   -4.6571    0.0084 H         1 <0>         0.1458
     29 H8         -0.3271   -2.5745   -0.0087 H         1 <0>         0.1405
     30 H9         -2.8681   -6.8374    1.6950 H         1 <0>         0.1371
     31 H10        -4.6328   -6.7383    1.8527 H         1 <0>         0.1396
     32 H11        -4.1501   -9.4428   -1.0303 H         1 <0>         0.4513
     33 H12        -6.5287   -4.7199   -0.8432 H         1 <0>         0.3985
@<TRIPOS>BOND
     1    1    2 1
     2    1   22 1
     3    1   23 1
     4    1   24 1
     5    2    3 1
     6    3   12 ar
     7    3    4 ar
     8    4    5 ar
     9    4   25 1
    10    5    6 ar
    11    5   26 1
    12    6   11 ar
    13    6    7 ar
    14    7    8 ar
    15    7   27 1
    16    8    9 ar
    17    8   21 1
    18    9   10 ar
    19    9   13 1
    20   10   11 ar
    21   10   28 1
    22   11   12 ar
    23   12   29 1
    24   13   18 1
    25   13   14 1
    26   14   15 1
    27   14   30 1
    28   14   31 1
    29   15   16 2
    30   15   17 am
    31   17   18 1
    32   17   32 1
    33   18   19 2
    34   18   20 2
    35   21   33 1
@<TRIPOS>MOLECULE
CHEMBL592291__1
   32    34     0     0     0
SMALL
USER_CHARGES

@<TRIPOS>ATOM
      1 C1         -0.0173    1.4248    0.0099 C.3       1 <0>         0.0335
      2 O1          0.0021   -0.0041    0.0020 O.3       1 <0>        -0.3284
      3 C2          0.6259   -0.6184    1.0416 C.ar      1 <0>         0.0494
      4 C3          1.2034    0.1540    2.0536 C.ar      1 <0>        -0.1726
      5 C4          1.8341   -0.4321    3.1069 C.ar      1 <0>        -0.1060
      6 C5          1.9089   -1.8334    3.1834 C.ar      1 <0>         0.0051
      7 C6          2.5535   -2.4685    4.2598 C.ar      1 <0>        -0.2924
      8 C7          2.6095   -3.8298    4.3065 C.ar      1 <0>         0.2696
      9 C8          2.0309   -4.6090    3.2912 C.ar      1 <0>         0.0703
     10 C9          1.3981   -4.0206    2.2334 C.ar      1 <0>        -0.0586
     11 C10         1.3241   -2.6190    2.1584 C.ar      1 <0>        -0.1185
     12 C11         0.6755   -1.9826    1.0869 C.ar      1 <0>        -0.1038
     13 N1          2.1040   -6.0028    3.3639 N.pl3     1 <0>        -0.9080
     14 C12         3.0982   -6.8913    2.7465 C.3       1 <0>         0.0468
     15 C13         2.8242   -8.3251    3.0670 C.2       1 <0>         0.5218
     16 O2          3.5220   -9.2294    2.6592 O.2       1 <0>        -0.4828
     17 N2          1.7486   -8.5364    3.8399 N.am      1 <0>        -1.0466
     18 S1          1.0862   -7.0458    4.1786 S.o2      1 <0>         2.7440
     19 O3          1.2623   -6.8086    5.5685 O.2       1 <0>        -0.9284
     20 O4         -0.1789   -6.9915    3.5337 O.2       1 <0>        -0.9620
     21 O5          3.2336   -4.4408    5.3487 O.3       1 <0>        -0.6919
     22 H1          1.0053    1.8021    0.0021 H         1 <0>         0.0475
     23 H2         -0.5445    1.7859   -0.8732 H         1 <0>         0.0889
     24 H3         -0.5275    1.7763    0.9067 H         1 <0>         0.0477
     25 H4          1.1483    1.2312    1.9983 H         1 <0>         0.1138
     26 H5          2.2760    0.1773    3.8814 H         1 <0>         0.1174
     27 H6          3.0028   -1.8801    5.0462 H         1 <0>         0.1072
     28 H7          0.9570   -4.6295    1.4581 H         1 <0>         0.1168
     29 H8          0.2219   -2.5688    0.3014 H         1 <0>         0.1189
     30 H9          3.0737   -6.7567    1.6652 H         1 <0>         0.1266
     31 H10         4.0896   -6.6270    3.1143 H         1 <0>         0.1322
     32 H11         1.4201   -9.3958    4.1471 H         1 <0>         0.4426
@<TRIPOS>BOND
     1    1    2 1
     2    1   22 1
     3    1   23 1
     4    1   24 1
     5    2    3 1
     6    3   12 ar
     7    3    4 ar
     8    4    5 ar
     9    4   25 1
    10    5    6 ar
    11    5   26 1
    12    6   11 ar
    13    6    7 ar
    14    7    8 ar
    15    7   27 1
    16    8    9 ar
    17    8   21 1
    18    9   10 ar
    19    9   13 1
    20   10   11 ar
    21   10   28 1
    22   11   12 ar
    23   12   29 1
    24   13   18 1
    25   13   14 1
    26   14   15 1
    27   14   30 1
    28   14   31 1
    29   15   16 2
    30   15   17 am
    31   17   18 1
    32   17   32 1
    33   18   19 2
    34   18   20 2
@<TRIPOS>MOLECULE
CHEMBL592291__2
   32    34     0     0     0
SMALL
USER_CHARGES

@<TRIPOS>ATOM
      1 C1         -0.0173    1.4248    0.0099 C.3       1 <0>         0.0276
      2 O1          0.0021   -0.0041    0.0020 O.3       1 <0>        -0.3185
      3 C2         -1.2004   -0.6375    0.0101 C.ar      1 <0>         0.1198
      4 C3         -2.3775    0.1167    0.0196 C.ar      1 <0>        -0.1889
      5 C4         -3.5958   -0.4888    0.0273 C.ar      1 <0>        -0.0651
      6 C5         -3.6775   -1.8918    0.0258 C.ar      1 <0>        -0.0683
      7 C6         -4.9220   -2.5467    0.0331 C.ar      1 <0>        -0.1267
      8 C7         -4.9693   -3.9091    0.0311 C.ar      1 <0>         0.1106
      9 C8         -3.7886   -4.6699    0.0221 C.ar      1 <0>         0.1867
     10 C9         -2.5655   -4.0622    0.0149 C.ar      1 <0>        -0.0983
     11 C10        -2.4854   -2.6589    0.0163 C.ar      1 <0>        -0.0142
     12 C11        -1.2432   -2.0026    0.0032 C.ar      1 <0>        -0.1411
     13 N1         -3.8664   -6.0654    0.0212 N.pl3     1 <0>        -0.9670
     14 C12        -3.8154   -6.9878    1.1674 C.3       1 <0>         0.0434
     15 C13        -3.9347   -8.4077    0.7164 C.2       1 <0>         0.4523
     16 O2         -3.9145   -9.4367    1.5888 O.3       1 <0>        -0.6429
     17 N2         -4.0577   -8.5924   -0.5455 N.2       1 <0>        -0.9302
     18 S1         -4.0476   -7.0975   -1.2809 S.o2      1 <0>         2.6433
     19 O3         -5.3445   -6.8780   -1.8186 O.2       1 <0>        -1.0088
     20 O4         -2.8587   -7.0163   -2.0549 O.2       1 <0>        -1.0071
     21 O5         -6.1742   -4.5392    0.0382 O.3       1 <0>        -0.4894
     22 H1          1.0053    1.8021    0.0021 H         1 <0>         0.0982
     23 H2         -0.5445    1.7859   -0.8732 H         1 <0>         0.0543
     24 H3         -0.5275    1.7763    0.9067 H         1 <0>         0.0542
     25 H4         -2.3188    1.1951    0.0211 H         1 <0>         0.1290
     26 H5         -4.4968    0.1066    0.0350 H         1 <0>         0.1319
     27 H6         -5.8367   -1.9725    0.0407 H         1 <0>         0.1375
     28 H7         -1.6641   -4.6571    0.0084 H         1 <0>         0.1417
     29 H8         -0.3271   -2.5745   -0.0087 H         1 <0>         0.1370
     30 H9         -2.8684   -6.8566    1.6911 H         1 <0>         0.0987
     31 H10        -4.6345   -6.7582    1.8489 H         1 <0>         0.1015
     32 H11        -6.5287   -4.7199   -0.8432 H         1 <0>         0.3987
@<TRIPOS>BOND
     1    1    2 1
     2    1   22 1
     3    1   23 1
     4    1   24 1
     5    2    3 1
     6    3   12 ar
     7    3    4 ar
     8    4    5 ar
     9    4   25 1
    10    5    6 ar
    11    5   26 1
    12    6   11 ar
    13    6    7 ar
    14    7    8 ar
    15    7   27 1
    16    8    9 ar
    17    8   21 1
    18    9   10 ar
    19    9   13 1
    20   10   11 ar
    21   10   28 1
    22   11   12 ar
    23   12   29 1
    24   13   18 1
    25   13   14 1
    26   14   15 1
    27   14   30 1
    28   14   31 1
    29   15   16 1
    30   15   17 2
    31   17   18 1
    32   18   19 2
    33   18   20 2
    34   21   32 1
@<TRIPOS>MOLECULE
CHEMBL211655
   68    72     0     0     0
SMALL
USER_CHARGES

@<TRIPOS>ATOM
      1 C1         -0.0184    1.5028    0.0103 C.3       1 <0>        -0.1749
      2 C2          0.0021   -0.0041    0.0020 C.2       1 <0>         0.5190
      3 O1          1.0605   -0.5961   -0.0113 O.2       1 <0>        -0.5211
      4 N1         -1.1558   -0.6938    0.0094 N.am      1 <0>        -0.7173
      5 C3         -1.1360   -2.1586    0.0013 C.3       1 <0>         0.1409
      6 H1         -2.1585   -2.5359    0.0091 H         1 <0>         0.1168
      7 C4         -0.4198   -2.6520   -1.2575 C.3       1 <0>        -0.0956
      8 C5         -1.2151   -2.2574   -2.4752 C.ar      1 <0>        -0.0789
      9 C6         -2.1882   -3.1055   -2.9699 C.ar      1 <0>        -0.1151
     10 C7         -2.9178   -2.7435   -4.0868 C.ar      1 <0>        -0.1161
     11 C8         -2.6745   -1.5332   -4.7089 C.ar      1 <0>        -0.1208
     12 C9         -1.7020   -0.6847   -4.2137 C.ar      1 <0>        -0.1192
     13 C10        -0.9754   -1.0448   -3.0942 C.ar      1 <0>        -0.1061
     14 C11        -0.4071   -2.6578    1.2222 C.2       1 <0>         0.5002
     15 O2          0.3501   -1.9224    1.8194 O.2       1 <0>        -0.4898
     16 N2         -0.5967   -3.9216    1.6505 N.am      1 <0>        -0.7323
     17 C12         0.1118   -4.4069    2.8373 C.3       1 <0>         0.2339
     18 H2          0.2140   -3.5946    3.5570 H         1 <0>         0.1225
     19 C13        -0.6796   -5.5529    3.4707 C.3       1 <0>        -0.0739
     20 C14        -1.9988   -5.0313    3.9794 C.ar      1 <0>        -0.0934
     21 C15        -2.0995   -4.5485    5.2708 C.ar      1 <0>        -0.1116
     22 C16        -3.3095   -4.0701    5.7374 C.ar      1 <0>        -0.1070
     23 C17        -4.4188   -4.0741    4.9126 C.ar      1 <0>        -0.0503
     24 C18        -4.3179   -4.5561    3.6209 C.ar      1 <0>        -0.1025
     25 C19        -3.1068   -5.0306    3.1529 C.ar      1 <0>        -0.1075
     26 C20        -5.7382   -3.5535    5.4216 C.3       1 <0>        -0.5503
     27 H3         -5.6558   -3.1989    6.4490 H         1 <0>         0.1391
     28 C21        -6.8674   -4.6102    5.2697 C.3       1 <0>        -0.1415
     29 C22        -8.1132   -3.9063    4.8227 C.2       1 <0>         0.4323
     30 O3         -9.3127   -4.5105    4.9512 O.3       1 <0>        -0.6592
     31 N3         -8.0385   -2.7300    4.3188 N.2       1 <0>        -0.9085
     32 S1         -6.4300   -2.2583    4.3109 S.o2      1 <0>         2.4579
     33 O4         -6.3975   -0.9824    4.9355 O.2       1 <0>        -0.9830
     34 O5         -5.9810   -2.4410    2.9752 O.2       1 <0>        -0.9820
     35 C23         1.4790   -4.9004    2.4394 C.2       1 <0>         0.2846
     36 N4          2.0110   -4.8001    1.1914 N.pl3     1 <0>        -0.5846
     37 H4          1.5847   -4.4052    0.4147 H         1 <0>         0.4193
     38 C24         3.2702   -5.3643    1.2352 C.ar      1 <0>         0.0477
     39 C25         4.2770   -5.5557    0.2987 C.ar      1 <0>        -0.1098
     40 C26         5.4515   -6.1716    0.6750 C.ar      1 <0>        -0.1044
     41 C27         5.6329   -6.6012    1.9821 C.ar      1 <0>        -0.1295
     42 C28         4.6533   -6.4213    2.9170 C.ar      1 <0>        -0.0645
     43 C29         3.4546   -5.7990    2.5585 C.ar      1 <0>         0.0505
     44 N5          2.3249   -5.4794    3.2408 N.2       1 <0>        -0.4858
     45 H5          1.0042    1.8801    0.0026 H         1 <0>         0.0903
     46 H6         -0.5455    1.8639   -0.8728 H         1 <0>         0.0855
     47 H7         -0.5286    1.8543    0.9071 H         1 <0>         0.0884
     48 H8         -2.0023   -0.2203    0.0200 H         1 <0>         0.4093
     49 H9          0.5723   -2.2036   -1.3105 H         1 <0>         0.1023
     50 H10        -0.3265   -3.7374   -1.2206 H         1 <0>         0.0791
     51 H11        -2.3783   -4.0511   -2.4839 H         1 <0>         0.1226
     52 H12        -3.6776   -3.4064   -4.4737 H         1 <0>         0.1228
     53 H13        -3.2440   -1.2507   -5.5820 H         1 <0>         0.1206
     54 H14        -1.5117    0.2607   -4.6999 H         1 <0>         0.1203
     55 H15        -0.2182   -0.3803   -2.7051 H         1 <0>         0.1163
     56 H16        -1.2023   -4.5098    1.1728 H         1 <0>         0.4047
     57 H17        -0.8583   -6.3270    2.7245 H         1 <0>         0.0810
     58 H18        -0.1105   -5.9725    4.3003 H         1 <0>         0.1053
     59 H19        -1.2328   -4.5453    5.9152 H         1 <0>         0.1247
     60 H20        -3.3884   -3.6935    6.7466 H         1 <0>         0.1245
     61 H21        -5.1846   -4.5596    2.9766 H         1 <0>         0.1387
     62 H22        -3.0270   -5.4037    2.1425 H         1 <0>         0.1195
     63 H23        -6.5781   -5.3532    4.5265 H         1 <0>         0.1038
     64 H24        -7.0448   -5.0990    6.2276 H         1 <0>         0.1064
     65 H25         4.1406   -5.2240   -0.7200 H         1 <0>         0.1209
     66 H26         6.2356   -6.3212   -0.0524 H         1 <0>         0.1285
     67 H27         6.5578   -7.0829    2.2629 H         1 <0>         0.1280
     68 H28         4.8049   -6.7598    3.9313 H         1 <0>         0.1286
@<TRIPOS>BOND
     1    1    2 1
     2    1   45 1
     3    1   46 1
     4    1   47 1
     5    2    3 2
     6    2    4 am
     7    4    5 1
     8    4   48 1
     9    5    6 1
    10    5    7 1
    11    5   14 1
    12    7    8 1
    13    7   49 1
    14    7   50 1
    15    8   13 ar
    16    8    9 ar
    17    9   10 ar
    18    9   51 1
    19   10   11 ar
    20   10   52 1
    21   11   12 ar
    22   11   53 1
    23   12   13 ar
    24   12   54 1
    25   13   55 1
    26   14   15 2
    27   14   16 am
    28   16   17 1
    29   16   56 1
    30   17   18 1
    31   17   19 1
    32   17   35 1
    33   19   20 1
    34   19   57 1
    35   19   58 1
    36   20   25 ar
    37   20   21 ar
    38   21   22 ar
    39   21   59 1
    40   22   23 ar
    41   22   60 1
    42   23   24 ar
    43   23   26 1
    44   24   25 ar
    45   24   61 1
    46   25   62 1
    47   26   27 1
    48   26   32 1
    49   26   28 1
    50   28   29 1
    51   28   63 1
    52   28   64 1
    53   29   30 1
    54   29   31 2
    55   31   32 1
    56   32   33 2
    57   32   34 2
    58   35   44 2
    59   35   36 1
    60   36   37 1
    61   36   38 1
    62   38   43 ar
    63   38   39 ar
    64   39   40 ar
    65   39   65 1
    66   40   41 ar
    67   40   66 1
    68   41   42 ar
    69   41   67 1
    70   42   43 ar
    71   42   68 1
    72   43   44 1
@<TRIPOS>MOLECULE
CHEMBL280388
   45    48     0     0     0
SMALL
USER_CHARGES

@<TRIPOS>ATOM
      1 C1         -0.0184    1.5028    0.0103 C.3       1 <0>        -0.0761
      2 C2          0.0021   -0.0041    0.0020 C.2       1 <0>        -0.0122
      3 C3         -1.0792   -0.8254    0.0025 C.2       1 <0>         0.0246
      4 N1         -0.6240   -2.0954   -0.0065 N.2       1 <0>        -0.4457
      5 C4          0.6866   -2.0696   -0.0123 C.2       1 <0>         0.2241
      6 O1          1.0962   -0.7893   -0.0131 O.3       1 <0>        -0.1872
      7 C5          1.5699   -3.2550   -0.0228 C.ar      1 <0>         0.0170
      8 C6          1.0209   -4.5381   -0.0330 C.ar      1 <0>        -0.0727
      9 C7          1.8508   -5.6401   -0.0426 C.ar      1 <0>        -0.0684
     10 C8          3.2245   -5.4754   -0.0422 C.ar      1 <0>        -0.1667
     11 C9          3.7752   -4.2062   -0.0316 C.ar      1 <0>        -0.0683
     12 C10         2.9565   -3.0958   -0.0282 C.ar      1 <0>        -0.0913
     13 C11         4.1250   -6.6838   -0.0528 C.3       1 <0>         0.5081
     14 F1          4.4027   -7.0468   -1.3750 F         1 <0>        -0.1733
     15 F2          5.3200   -6.3806    0.6084 F         1 <0>        -0.1745
     16 F3          3.4881   -7.7456    0.5984 F         1 <0>        -0.1740
     17 C12        -2.5011   -0.4034    0.0120 C.ar      1 <0>        -0.0029
     18 C13        -2.8836    0.7425    0.7087 C.ar      1 <0>        -0.1035
     19 C14        -4.2042    1.1342    0.7179 C.ar      1 <0>        -0.1025
     20 C15        -5.1586    0.3850    0.0301 C.ar      1 <0>        -0.0418
     21 C16        -4.7758   -0.7607   -0.6670 C.ar      1 <0>        -0.1035
     22 C17        -3.4544   -1.1494   -0.6805 C.ar      1 <0>        -0.0829
     23 C18        -6.5803    0.8063    0.0404 C.ar      1 <0>        -0.0400
     24 C19        -6.9635    1.9543    0.7325 C.ar      1 <0>        -0.0548
     25 C20        -8.2872    2.3440    0.7404 C.ar      1 <0>        -0.1124
     26 C21        -9.2374    1.5935    0.0602 C.ar      1 <0>         0.1640
     27 C22        -8.8586    0.4495   -0.6301 C.ar      1 <0>        -0.1122
     28 C23        -7.5353    0.0585   -0.6467 C.ar      1 <0>        -0.0546
     29 Br1       -10.1562   -0.5689   -1.5548 Br        1 <0>        -0.0176
     30 O2        -10.5406    1.9792    0.0704 O.3       1 <0>        -0.4725
     31 Br2        -8.8080    3.9009    1.6788 Br        1 <0>        -0.0179
     32 H1          1.0042    1.8801    0.0026 H         1 <0>         0.0848
     33 H2         -0.5455    1.8639   -0.8728 H         1 <0>         0.0967
     34 H3         -0.5286    1.8543    0.9071 H         1 <0>         0.0956
     35 H4         -0.0512   -4.6680   -0.0330 H         1 <0>         0.1517
     36 H5          1.4273   -6.6336   -0.0502 H         1 <0>         0.1477
     37 H6          4.8483   -4.0844   -0.0310 H         1 <0>         0.1463
     38 H7          3.3876   -2.1055   -0.0248 H         1 <0>         0.1444
     39 H8         -2.1446    1.3226    1.2413 H         1 <0>         0.1323
     40 H9         -4.5006    2.0212    1.2581 H         1 <0>         0.1324
     41 H10        -5.5148   -1.3409   -1.1996 H         1 <0>         0.1316
     42 H11        -3.1572   -2.0341   -1.2240 H         1 <0>         0.1329
     43 H12        -6.2251    2.5379    1.2622 H         1 <0>         0.1476
     44 H13        -7.2406   -0.8288   -1.1873 H         1 <0>         0.1477
     45 H14       -10.7802    2.5748   -0.6527 H         1 <0>         0.4000
@<TRIPOS>BOND
     1    1    2 1
     2    1   32 1
     3    1   33 1
     4    1   34 1
     5    2    6 1
     6    2    3 2
     7    3    4 1
     8    3   17 1
     9    4    5 2
    10    5    6 1
    11    5    7 1
    12    7   12 ar
    13    7    8 ar
    14    8    9 ar
    15    8   35 1
    16    9   10 ar
    17    9   36 1
    18   10   11 ar
    19   10   13 1
    20   11   12 ar
    21   11   37 1
    22   12   38 1
    23   13   14 1
    24   13   15 1
    25   13   16 1
    26   17   22 ar
    27   17   18 ar
    28   18   19 ar
    29   18   39 1
    30   19   20 ar
    31   19   40 1
    32   20   21 ar
    33   20   23 1
    34   21   22 ar
    35   21   41 1
    36   22   42 1
    37   23   28 ar
    38   23   24 ar
    39   24   25 ar
    40   24   43 1
    41   25   26 ar
    42   25   31 1
    43   26   27 ar
    44   26   30 1
    45   27   28 ar
    46   27   29 1
    47   28   44 1
    48   30   45 1
@<TRIPOS>MOLECULE
CHEMBL280388__1
   44    47     0     0     0
SMALL
USER_CHARGES

@<TRIPOS>ATOM
      1 C1         -0.0184    1.5028    0.0103 C.3       1 <0>        -0.0710
      2 C2          0.0021   -0.0041    0.0020 C.2       1 <0>        -0.0276
      3 C3         -1.0792   -0.8254    0.0025 C.2       1 <0>         0.0490
      4 N1         -0.6240   -2.0954   -0.0065 N.2       1 <0>        -0.4437
      5 C4          0.6866   -2.0696   -0.0123 C.2       1 <0>         0.2078
      6 O1          1.0962   -0.7893   -0.0131 O.3       1 <0>        -0.1919
      7 C5          1.5699   -3.2550   -0.0228 C.ar      1 <0>         0.0273
      8 C6          1.0209   -4.5381   -0.0330 C.ar      1 <0>        -0.0748
      9 C7          1.8508   -5.6401   -0.0426 C.ar      1 <0>        -0.0680
     10 C8          3.2245   -5.4754   -0.0422 C.ar      1 <0>        -0.1732
     11 C9          3.7752   -4.2062   -0.0316 C.ar      1 <0>        -0.0691
     12 C10         2.9565   -3.0958   -0.0282 C.ar      1 <0>        -0.0949
     13 C11         4.1250   -6.6838   -0.0528 C.3       1 <0>         0.5090
     14 F1          4.4027   -7.0468   -1.3750 F         1 <0>        -0.1747
     15 F2          5.3200   -6.3806    0.6084 F         1 <0>        -0.1760
     16 F3          3.4881   -7.7456    0.5984 F         1 <0>        -0.1749
     17 C12        -2.5011   -0.4034    0.0120 C.ar      1 <0>        -0.0577
     18 C13        -2.8836    0.7425    0.7087 C.ar      1 <0>        -0.0922
     19 C14        -4.2042    1.1342    0.7179 C.ar      1 <0>        -0.1393
     20 C15        -5.1586    0.3850    0.0301 C.ar      1 <0>         0.0354
     21 C16        -4.7758   -0.7607   -0.6670 C.ar      1 <0>        -0.1403
     22 C17        -3.4544   -1.1494   -0.6805 C.ar      1 <0>        -0.0725
     23 C18        -6.5803    0.8063    0.0404 C.ar      1 <0>        -0.2089
     24 C19        -6.9635    1.9543    0.7325 C.ar      1 <0>        -0.0047
     25 C20        -8.2872    2.3440    0.7404 C.ar      1 <0>        -0.2199
     26 C21        -9.2374    1.5935    0.0602 C.ar      1 <0>         0.3157
     27 C22        -8.8586    0.4495   -0.6301 C.ar      1 <0>        -0.2197
     28 C23        -7.5353    0.0585   -0.6467 C.ar      1 <0>        -0.0046
     29 Br1       -10.1562   -0.5689   -1.5548 Br        1 <0>        -0.0832
     30 O2        -10.5406    1.9792    0.0704 O.3       1 <0>        -0.6516
     31 Br2        -8.8080    3.9009    1.6788 Br        1 <0>        -0.0835
     32 H1          1.0042    1.8801    0.0026 H         1 <0>         0.0790
     33 H2         -0.5455    1.8639   -0.8728 H         1 <0>         0.0956
     34 H3         -0.5286    1.8543    0.9071 H         1 <0>         0.0947
     35 H4         -0.0512   -4.6680   -0.0330 H         1 <0>         0.1527
     36 H5          1.4273   -6.6336   -0.0502 H         1 <0>         0.1461
     37 H6          4.8483   -4.0844   -0.0310 H         1 <0>         0.1439
     38 H7          3.3876   -2.1055   -0.0248 H         1 <0>         0.1435
     39 H8         -2.1446    1.3226    1.2413 H         1 <0>         0.1202
     40 H9         -4.5006    2.0212    1.2581 H         1 <0>         0.1259
     41 H10        -5.5148   -1.3409   -1.1996 H         1 <0>         0.1250
     42 H11        -3.1572   -2.0341   -1.2240 H         1 <0>         0.1205
     43 H12        -6.2251    2.5379    1.2622 H         1 <0>         0.1133
     44 H13        -7.2406   -0.8288   -1.1873 H         1 <0>         0.1134
@<TRIPOS>BOND
     1    1    2 1
     2    1   32 1
     3    1   33 1
     4    1   34 1
     5    2    6 1
     6    2    3 2
     7    3    4 1
     8    3   17 1
     9    4    5 2
    10    5    6 1
    11    5    7 1
    12    7   12 ar
    13    7    8 ar
    14    8    9 ar
    15    8   35 1
    16    9   10 ar
    17    9   36 1
    18   10   11 ar
    19   10   13 1
    20   11   12 ar
    21   11   37 1
    22   12   38 1
    23   13   14 1
    24   13   15 1
    25   13   16 1
    26   17   22 ar
    27   17   18 ar
    28   18   19 ar
    29   18   39 1
    30   19   20 ar
    31   19   40 1
    32   20   21 ar
    33   20   23 1
    34   21   22 ar
    35   21   41 1
    36   22   42 1
    37   23   28 ar
    38   23   24 ar
    39   24   25 ar
    40   24   43 1
    41   25   26 ar
    42   25   31 1
    43   26   27 ar
    44   26   30 1
    45   27   28 ar
    46   27   29 1
    47   28   44 1
@<TRIPOS>MOLECULE
CHEMBL381584
   56    60     0     0     0
SMALL
USER_CHARGES

@<TRIPOS>ATOM
      1 C1          0.0576    1.4326    0.0675 C.ar      1 <0>        -0.0986
      2 C2          1.2434    2.1476   -0.0255 C.ar      1 <0>        -0.1283
      3 C3          2.4452    1.5003   -0.0766 C.ar      1 <0>        -0.0605
      4 C4          2.4863    0.1041   -0.0347 C.ar      1 <0>         0.0502
      5 C5          1.2861   -0.6203    0.0600 C.ar      1 <0>         0.0528
      6 C6          0.0741    0.0549    0.1104 C.ar      1 <0>        -0.1132
      7 N1          1.6460   -1.9529    0.0809 N.pl3     1 <0>        -0.5900
      8 H1          1.0430   -2.7104    0.1407 H         1 <0>         0.4157
      9 C7          3.0030   -2.0069    0.0016 C.2       1 <0>         0.2642
     10 N2          3.4951   -0.8043   -0.0660 N.2       1 <0>        -0.4698
     11 C8          3.8175   -3.2747   -0.0062 C.3       1 <0>         0.2348
     12 H2          4.4339   -3.3161    0.8919 H         1 <0>         0.1325
     13 C9          4.7172   -3.2953   -1.2436 C.3       1 <0>        -0.0690
     14 C10         5.6192   -4.5013   -1.1889 C.ar      1 <0>        -0.0714
     15 C11         6.8532   -4.4139   -0.5713 C.ar      1 <0>        -0.1117
     16 C12         7.6815   -5.5193   -0.5204 C.ar      1 <0>        -0.0796
     17 C13         7.2772   -6.7133   -1.0873 C.ar      1 <0>        -0.0645
     18 C14         6.0419   -6.8019   -1.7059 C.ar      1 <0>         0.0917
     19 C15         5.2103   -5.6955   -1.7510 C.ar      1 <0>        -0.1374
     20 F1          5.6459   -7.9683   -2.2608 F         1 <0>        -0.1343
     21 C16         8.1810   -7.9179   -1.0325 C.3       1 <0>        -0.5605
     22 H3          7.8423   -8.6351   -0.2849 H         1 <0>         0.1504
     23 C17         9.6634   -7.5113   -0.8051 C.3       1 <0>        -0.1465
     24 C18        10.5275   -8.3820   -1.6667 C.2       1 <0>         0.4333
     25 O1         11.8481   -8.4866   -1.4109 O.3       1 <0>        -0.6599
     26 N3         10.0111   -9.0277   -2.6464 N.2       1 <0>        -0.9095
     27 S1          8.3675   -8.7015   -2.6880 S.o2      1 <0>         2.4614
     28 O2          7.7224   -9.9670   -2.7273 O.2       1 <0>        -0.9757
     29 O3          8.1898   -7.7468   -3.7255 O.2       1 <0>        -0.9809
     30 N4          2.9196   -4.4319   -0.0360 N.pl3     1 <0>        -1.1150
     31 S2          2.4911   -5.1840    1.3757 S.o2      1 <0>         2.6837
     32 O4          1.6045   -6.2367    1.0222 O.2       1 <0>        -0.9401
     33 O5          3.6946   -5.4113    2.0963 O.2       1 <0>        -0.9283
     34 C19         1.5511   -4.0287    2.3171 C.ar      1 <0>        -0.6620
     35 C20         2.1879   -3.1748    3.1986 C.ar      1 <0>        -0.0234
     36 C21         1.4518   -2.2680    3.9377 C.ar      1 <0>        -0.1005
     37 C22         0.0779   -2.2141    3.7966 C.ar      1 <0>        -0.0924
     38 C23        -0.5608   -3.0685    2.9143 C.ar      1 <0>         0.0848
     39 C24         0.1783   -3.9725    2.1699 C.ar      1 <0>        -0.0689
     40 F2         -1.9038   -3.0170    2.7760 F         1 <0>        -0.1312
     41 H4         -0.8842    1.9594    0.1112 H         1 <0>         0.1292
     42 H5          1.2157    3.2268   -0.0582 H         1 <0>         0.1294
     43 H6          3.3619    2.0665   -0.1497 H         1 <0>         0.1308
     44 H7         -0.8516   -0.4968    0.1832 H         1 <0>         0.1199
     45 H8          4.1000   -3.3435   -2.1407 H         1 <0>         0.0888
     46 H9          5.3229   -2.3894   -1.2675 H         1 <0>         0.1127
     47 H10         7.1702   -3.4812   -0.1287 H         1 <0>         0.1366
     48 H11         8.6452   -5.4499   -0.0378 H         1 <0>         0.1434
     49 H12         4.2445   -5.7647   -2.2294 H         1 <0>         0.1361
     50 H13         9.8044   -6.4660   -1.0803 H         1 <0>         0.1076
     51 H14         9.9271   -7.6535    0.2429 H         1 <0>         0.1095
     52 H15         2.5761   -4.7575   -0.8827 H         1 <0>         0.4270
     53 H16         3.2614   -3.2167    3.3100 H         1 <0>         0.1501
     54 H17         1.9503   -1.6015    4.6259 H         1 <0>         0.1460
     55 H18        -0.4972   -1.5059    4.3748 H         1 <0>         0.1457
     56 H19        -0.3184   -4.6365    1.4780 H         1 <0>         0.1548
@<TRIPOS>BOND
     1    1    6 ar
     2    1    2 ar
     3    1   41 1
     4    2    3 ar
     5    2   42 1
     6    3    4 ar
     7    3   43 1
     8    4   10 1
     9    4    5 ar
    10    5    6 ar
    11    5    7 1
    12    6   44 1
    13    7    8 1
    14    7    9 1
    15    9   10 2
    16    9   11 1
    17   11   12 1
    18   11   13 1
    19   11   30 1
    20   13   14 1
    21   13   45 1
    22   13   46 1
    23   14   19 ar
    24   14   15 ar
    25   15   16 ar
    26   15   47 1
    27   16   17 ar
    28   16   48 1
    29   17   18 ar
    30   17   21 1
    31   18   19 ar
    32   18   20 1
    33   19   49 1
    34   21   22 1
    35   21   27 1
    36   21   23 1
    37   23   24 1
    38   23   50 1
    39   23   51 1
    40   24   25 1
    41   24   26 2
    42   26   27 1
    43   27   28 2
    44   27   29 2
    45   30   31 1
    46   30   52 1
    47   31   32 2
    48   31   33 2
    49   31   34 1
    50   34   39 ar
    51   34   35 ar
    52   35   36 ar
    53   35   53 1
    54   36   37 ar
    55   36   54 1
    56   37   38 ar
    57   37   55 1
    58   38   39 ar
    59   38   40 1
    60   39   56 1
@<TRIPOS>MOLECULE
CHEMBL285125
   53    57     0     0     0
SMALL
USER_CHARGES

@<TRIPOS>ATOM
      1 C1         -0.0184    1.5028    0.0103 C.3       1 <0>        -0.0754
      2 C2          0.0021   -0.0041    0.0020 C.2       1 <0>        -0.0141
      3 C3         -1.0792   -0.8254    0.0025 C.2       1 <0>         0.0263
      4 N1         -0.6240   -2.0954   -0.0065 N.2       1 <0>        -0.4463
      5 C4          0.6866   -2.0696   -0.0123 C.2       1 <0>         0.2234
      6 O1          1.0962   -0.7893   -0.0131 O.3       1 <0>        -0.1875
      7 C5          1.5699   -3.2550   -0.0223 C.ar      1 <0>         0.0172
      8 C6          1.0209   -4.5381   -0.0321 C.ar      1 <0>        -0.0729
      9 C7          1.8508   -5.6401   -0.0413 C.ar      1 <0>        -0.0684
     10 C8          3.2245   -5.4754   -0.0405 C.ar      1 <0>        -0.1668
     11 C9          3.7752   -4.2062   -0.0304 C.ar      1 <0>        -0.0682
     12 C10         2.9565   -3.0958   -0.0278 C.ar      1 <0>        -0.0914
     13 C11         4.1250   -6.6838   -0.0501 C.3       1 <0>         0.5081
     14 F1          4.4032   -7.0475   -1.3720 F         1 <0>        -0.1733
     15 F2          5.3198   -6.3803    0.6114 F         1 <0>        -0.1745
     16 F3          3.4879   -7.7453    0.6014 F         1 <0>        -0.1741
     17 C12        -2.5011   -0.4034    0.0120 C.ar      1 <0>        -0.0091
     18 C13        -2.8836    0.7425    0.7087 C.ar      1 <0>        -0.1032
     19 C14        -4.2042    1.1342    0.7179 C.ar      1 <0>        -0.1083
     20 C15        -5.1586    0.3850    0.0301 C.ar      1 <0>        -0.0359
     21 C16        -4.7758   -0.7607   -0.6670 C.ar      1 <0>        -0.1098
     22 C17        -3.4544   -1.1493   -0.6805 C.ar      1 <0>        -0.0830
     23 C18        -6.5803    0.8064    0.0404 C.ar      1 <0>        -0.0712
     24 C19        -6.9636    1.9543    0.7325 C.ar      1 <0>        -0.0675
     25 C20        -8.2865    2.3435    0.7402 C.ar      1 <0>        -0.1336
     26 C21        -9.2363    1.5935    0.0598 C.ar      1 <0>         0.1324
     27 C22        -8.8578    0.4495   -0.6300 C.ar      1 <0>        -0.2009
     28 C23        -7.5355    0.0585   -0.6467 C.ar      1 <0>        -0.0658
     29 O2        -10.5390    1.9795    0.0693 O.3       1 <0>        -0.3246
     30 C24       -11.4632    1.1619   -0.6514 C.3       1 <0>         0.3034
     31 N2        -12.8101    1.7256   -0.5319 N.pl3     1 <0>        -0.3214
     32 C25       -13.1535    2.8406    0.1392 C.2       1 <0>         0.1835
     33 N3        -14.4479    2.9849   -0.0081 N.2       1 <0>        -0.3039
     34 N4        -14.8771    2.0093   -0.7320 N.2       1 <0>        -0.0612
     35 N5        -13.8892    1.2496   -1.0549 N.2       1 <0>        -0.0839
     36 H1          1.0042    1.8801    0.0026 H         1 <0>         0.0845
     37 H2         -0.5455    1.8639   -0.8728 H         1 <0>         0.0963
     38 H3         -0.5286    1.8543    0.9071 H         1 <0>         0.0953
     39 H4         -0.0512   -4.6680   -0.0320 H         1 <0>         0.1515
     40 H5          1.4273   -6.6336   -0.0489 H         1 <0>         0.1476
     41 H6          4.8483   -4.0845   -0.0294 H         1 <0>         0.1463
     42 H7          3.3876   -2.1055   -0.0248 H         1 <0>         0.1444
     43 H8         -2.1446    1.3226    1.2413 H         1 <0>         0.1303
     44 H9         -4.5006    2.0212    1.2581 H         1 <0>         0.1316
     45 H10        -5.5148   -1.3408   -1.1996 H         1 <0>         0.1298
     46 H11        -3.1573   -2.0343   -1.2237 H         1 <0>         0.1305
     47 H12        -6.2253    2.5380    1.2623 H         1 <0>         0.1392
     48 H13        -8.5842    3.2325    1.2764 H         1 <0>         0.1397
     49 H14        -9.5990   -0.1320   -1.1580 H         1 <0>         0.1335
     50 H15        -7.2409   -0.8288   -1.1873 H         1 <0>         0.1350
     51 H16       -11.1755    1.1278   -1.7022 H         1 <0>         0.1139
     52 H17       -11.4537    0.1529   -0.2392 H         1 <0>         0.1140
     53 H18       -12.4911    3.4900    0.6923 H         1 <0>         0.2385
@<TRIPOS>BOND
     1    1    2 1
     2    1   36 1
     3    1   37 1
     4    1   38 1
     5    2    6 1
     6    2    3 2
     7    3    4 1
     8    3   17 1
     9    4    5 2
    10    5    6 1
    11    5    7 1
    12    7   12 ar
    13    7    8 ar
    14    8    9 ar
    15    8   39 1
    16    9   10 ar
    17    9   40 1
    18   10   11 ar
    19   10   13 1
    20   11   12 ar
    21   11   41 1
    22   12   42 1
    23   13   14 1
    24   13   15 1
    25   13   16 1
    26   17   22 ar
    27   17   18 ar
    28   18   19 ar
    29   18   43 1
    30   19   20 ar
    31   19   44 1
    32   20   21 ar
    33   20   23 1
    34   21   22 ar
    35   21   45 1
    36   22   46 1
    37   23   28 ar
    38   23   24 ar
    39   24   25 ar
    40   24   47 1
    41   25   26 ar
    42   25   48 1
    43   26   27 ar
    44   26   29 1
    45   27   28 ar
    46   27   49 1
    47   28   50 1
    48   29   30 1
    49   30   31 1
    50   30   51 1
    51   30   52 1
    52   31   35 1
    53   31   32 1
    54   32   33 2
    55   32   53 1
    56   33   34 1
    57   34   35 2
@<TRIPOS>MOLECULE
CHEMBL556913
   61    65     0     0     0
SMALL
USER_CHARGES

@<TRIPOS>ATOM
      1 C1         -0.0413    1.3819    0.0382 C.ar      1 <0>        -0.1111
      2 C2          1.1465    2.0889    0.0233 C.ar      1 <0>        -0.1206
      3 C3          2.3525    1.4137   -0.0000 C.ar      1 <0>        -0.0904
      4 C4          2.3707    0.0315   -0.0081 C.ar      1 <0>        -0.0718
      5 C5          1.1829   -0.6756    0.0077 C.ar      1 <0>        -0.0893
      6 C6         -0.0231   -0.0004    0.0296 C.ar      1 <0>        -0.1192
      7 C7          3.6854   -0.7046   -0.0345 C.3       1 <0>         0.1177
      8 S1          4.9483    0.1743    0.9721 S.3       1 <0>        -0.2476
      9 C8          4.8592   -0.7013    2.5824 C.3       1 <0>        -0.0780
     10 C9          4.7388   -2.2020    2.2186 C.3       1 <0>        -0.0467
     11 S2          3.5503   -2.3147    0.8341 S.3       1 <0>        -0.2399
     12 C10         4.2181   -2.9919    3.4210 C.3       1 <0>        -0.0825
     13 C11         4.2218   -4.4857    3.0902 C.3       1 <0>        -0.1397
     14 C12         3.7089   -5.2638    4.2745 C.2       1 <0>         0.5129
     15 O1          3.3735   -4.6809    5.2838 O.2       1 <0>        -0.5189
     16 N1          3.6230   -6.6073    4.2121 N.am      1 <0>        -0.6704
     17 C13         3.2398   -7.3371    5.3428 C.ar      1 <0>         0.1252
     18 C14         2.3006   -6.8161    6.2235 C.ar      1 <0>        -0.1174
     19 C15         1.9293   -7.5407    7.3369 C.ar      1 <0>        -0.1034
     20 C16         2.4874   -8.7863    7.5811 C.ar      1 <0>        -0.0684
     21 C17         3.4177   -9.3088    6.7063 C.ar      1 <0>        -0.0977
     22 C18         3.7920   -8.5860    5.5853 C.ar      1 <0>        -0.1361
     23 C19         4.0359  -10.6642    6.9316 C.3       1 <0>         0.0925
     24 O2          3.8195  -11.0892    8.2767 O.3       1 <0>        -0.3434
     25 C20         2.4462  -11.0161    8.6761 C.3       1 <0>         0.0224
     26 H1          1.8194  -11.4911    7.9212 H         1 <0>         0.0544
     27 C21         2.0588   -9.5427    8.8129 C.3       1 <0>        -0.0930
     28 C22         2.2653  -11.7165    9.9981 C.2       1 <0>         0.5062
     29 O3          3.2351  -12.1522   10.5949 O.co2     1 <0>        -0.6729
     30 O4          1.1492  -11.8474   10.4710 O.co2     1 <0>        -0.6911
     31 C23         4.1613   -0.8974   -1.4514 C.ar      1 <0>        -0.0572
     32 C24         3.7899   -2.0262   -2.1576 C.ar      1 <0>        -0.0882
     33 C25         4.2264   -2.2031   -3.4573 C.ar      1 <0>        -0.1173
     34 C26         5.0340   -1.2510   -4.0508 C.ar      1 <0>        -0.1119
     35 C27         5.4047   -0.1218   -3.3448 C.ar      1 <0>        -0.1178
     36 C28         4.9647    0.0571   -2.0466 C.ar      1 <0>        -0.0936
     37 H2         -0.9835    1.9093    0.0610 H         1 <0>         0.1237
     38 H3          1.1322    3.1688    0.0296 H         1 <0>         0.1251
     39 H4          3.2804    1.9660   -0.0123 H         1 <0>         0.1282
     40 H5          1.1972   -1.7554    0.0007 H         1 <0>         0.1282
     41 H6         -0.9511   -0.5527    0.0416 H         1 <0>         0.1259
     42 H7          5.7660   -0.5235    3.1606 H         1 <0>         0.1296
     43 H8          3.9824   -0.3760    3.1423 H         1 <0>         0.1050
     44 H9          5.7094   -2.5897    1.9093 H         1 <0>         0.1119
     45 H10         4.8610   -2.8089    4.2820 H         1 <0>         0.0936
     46 H11         3.2016   -2.6735    3.6523 H         1 <0>         0.0887
     47 H12         3.5789   -4.6688    2.2292 H         1 <0>         0.1002
     48 H13         5.2383   -4.8041    2.8589 H         1 <0>         0.1000
     49 H14         3.8268   -7.0684    3.3834 H         1 <0>         0.4089
     50 H15         1.8627   -5.8466    6.0373 H         1 <0>         0.1354
     51 H16         1.1999   -7.1354    8.0226 H         1 <0>         0.1263
     52 H17         4.5199   -8.9946    4.9001 H         1 <0>         0.1234
     53 H18         3.5854  -11.3844    6.2486 H         1 <0>         0.0569
     54 H19         5.1073  -10.6088    6.7386 H         1 <0>         0.0968
     55 H20         2.5507   -9.1183    9.6882 H         1 <0>         0.0822
     56 H21         0.9782   -9.4614    8.9305 H         1 <0>         0.0862
     57 H22         3.1590   -2.7701   -1.6939 H         1 <0>         0.1281
     58 H23         3.9368   -3.0853   -4.0088 H         1 <0>         0.1266
     59 H24         5.3756   -1.3896   -5.0659 H         1 <0>         0.1243
     60 H25         6.0360    0.6218   -3.8084 H         1 <0>         0.1254
     61 H26         5.2512    0.9411   -1.4963 H         1 <0>         0.1236
@<TRIPOS>BOND
     1    1    6 ar
     2    1    2 ar
     3    1   37 1
     4    2    3 ar
     5    2   38 1
     6    3    4 ar
     7    3   39 1
     8    4    5 ar
     9    4    7 1
    10    5    6 ar
    11    5   40 1
    12    6   41 1
    13    7   11 1
    14    7    8 1
    15    7   31 1
    16    8    9 1
    17    9   10 1
    18    9   42 1
    19    9   43 1
    20   10   11 1
    21   10   12 1
    22   10   44 1
    23   12   13 1
    24   12   45 1
    25   12   46 1
    26   13   14 1
    27   13   47 1
    28   13   48 1
    29   14   15 2
    30   14   16 am
    31   16   17 1
    32   16   49 1
    33   17   22 ar
    34   17   18 ar
    35   18   19 ar
    36   18   50 1
    37   19   20 ar
    38   19   51 1
    39   20   27 1
    40   20   21 ar
    41   21   22 ar
    42   21   23 1
    43   22   52 1
    44   23   24 1
    45   23   53 1
    46   23   54 1
    47   24   25 1
    48   25   26 1
    49   25   27 1
    50   25   28 1
    51   27   55 1
    52   27   56 1
    53   28   29 2
    54   28   30 1
    55   31   36 ar
    56   31   32 ar
    57   32   33 ar
    58   32   57 1
    59   33   34 ar
    60   33   58 1
    61   34   35 ar
    62   34   59 1
    63   35   36 ar
    64   35   60 1
    65   36   61 1
@<TRIPOS>MOLECULE
CHEMBL556913__1
   61    65     0     0     0
SMALL
USER_CHARGES

@<TRIPOS>ATOM
      1 C1         -0.0228    1.4029    0.0537 C.ar      1 <0>        -0.1118
      2 C2          1.1662    2.1079    0.0435 C.ar      1 <0>        -0.1203
      3 C3          2.3711    1.4307    0.0200 C.ar      1 <0>        -0.0893
      4 C4          2.3869    0.0485    0.0072 C.ar      1 <0>        -0.0699
      5 C5          1.1979   -0.6565    0.0183 C.ar      1 <0>        -0.0920
      6 C6         -0.0070    0.0207    0.0404 C.ar      1 <0>        -0.1196
      7 C7          3.7004   -0.6898   -0.0195 C.3       1 <0>         0.1175
      8 S1          4.9601    0.1814    0.9902 S.3       1 <0>        -0.2487
      9 C8          5.4162   -1.0090    2.3006 C.3       1 <0>        -0.0789
     10 C9          4.1824   -1.9174    2.5275 C.3       1 <0>        -0.0457
     11 S2          3.5606   -2.3063    0.8452 S.3       1 <0>        -0.2376
     12 C10         4.5935   -3.2008    3.2519 C.3       1 <0>        -0.0806
     13 C11         3.3461   -4.0251    3.5766 C.3       1 <0>        -0.1403
     14 C12         3.7510   -5.2892    4.2901 C.2       1 <0>         0.5126
     15 O1          4.9221   -5.5091    4.5167 O.2       1 <0>        -0.5187
     16 N1          2.8119   -6.1753    4.6765 N.am      1 <0>        -0.6702
     17 C13         3.1930   -7.3928    5.2512 C.ar      1 <0>         0.1251
     18 C14         4.3093   -7.4555    6.0754 C.ar      1 <0>        -0.1175
     19 C15         4.6798   -8.6597    6.6368 C.ar      1 <0>        -0.1034
     20 C16         3.9437   -9.8073    6.3838 C.ar      1 <0>        -0.0683
     21 C17         2.8320   -9.7480    5.5688 C.ar      1 <0>        -0.0975
     22 C18         2.4544   -8.5404    5.0047 C.ar      1 <0>        -0.1359
     23 C19         2.0003  -10.9710    5.2816 C.3       1 <0>         0.0924
     24 O2          2.7205  -12.1523    5.6317 O.3       1 <0>        -0.3433
     25 C20         3.2428  -12.1190    6.9647 C.3       1 <0>         0.0224
     26 H1          2.4576  -11.8184    7.6584 H         1 <0>         0.0543
     27 C21         4.3866  -11.1044    7.0119 C.3       1 <0>        -0.0931
     28 C22         3.7560  -13.4848    7.3418 C.2       1 <0>         0.5061
     29 O3          3.7670  -14.3814    6.5157 O.co2     1 <0>        -0.6726
     30 O4          4.1601  -13.6932    8.4731 O.co2     1 <0>        -0.6912
     31 C23         4.1785   -0.8786   -1.4361 C.ar      1 <0>        -0.0587
     32 C24         3.8064   -2.0042   -2.1470 C.ar      1 <0>        -0.0919
     33 C25         4.2450   -2.1774   -3.4464 C.ar      1 <0>        -0.1168
     34 C26         5.0553   -1.2247   -4.0351 C.ar      1 <0>        -0.1113
     35 C27         5.4267   -0.0986   -3.3246 C.ar      1 <0>        -0.1182
     36 C28         4.9846    0.0766   -2.0266 C.ar      1 <0>        -0.0895
     37 H2         -0.9641    1.9320    0.0766 H         1 <0>         0.1234
     38 H3          1.1538    3.1878    0.0535 H         1 <0>         0.1248
     39 H4          3.3000    1.9814    0.0112 H         1 <0>         0.1248
     40 H5          1.2103   -1.7364    0.0076 H         1 <0>         0.1325
     41 H6         -0.9360   -0.5301    0.0487 H         1 <0>         0.1259
     42 H7          6.2672   -1.6094    1.9791 H         1 <0>         0.1067
     43 H8          5.6610   -0.4763    3.2195 H         1 <0>         0.1238
     44 H9          3.4212   -1.3863    3.0990 H         1 <0>         0.1093
     45 H10         5.2570   -3.7825    2.6121 H         1 <0>         0.0898
     46 H11         5.1115   -2.9461    4.1765 H         1 <0>         0.0956
     47 H12         2.6826   -3.4433    4.2164 H         1 <0>         0.0996
     48 H13         2.8281   -4.2798    2.6520 H         1 <0>         0.1014
     49 H14         1.8717   -5.9690    4.5562 H         1 <0>         0.4088
     50 H15         4.8855   -6.5643    6.2758 H         1 <0>         0.1353
     51 H16         5.5484   -8.7092    7.2767 H         1 <0>         0.1264
     52 H17         1.5841   -8.4933    4.3670 H         1 <0>         0.1235
     53 H18         1.0786  -10.9250    5.8617 H         1 <0>         0.0569
     54 H19         1.7546  -10.9994    4.2200 H         1 <0>         0.0969
     55 H20         5.2432  -11.4982    6.4648 H         1 <0>         0.0823
     56 H21         4.6707  -10.9265    8.0491 H         1 <0>         0.0862
     57 H22         3.1733   -2.7486   -1.6870 H         1 <0>         0.1247
     58 H23         3.9549   -3.0572   -4.0015 H         1 <0>         0.1265
     59 H24         5.3986   -1.3603   -5.0501 H         1 <0>         0.1245
     60 H25         6.0601    0.6456   -3.7844 H         1 <0>         0.1260
     61 H26         5.2717    0.9582   -1.4727 H         1 <0>         0.1269
@<TRIPOS>BOND
     1    1    6 ar
     2    1    2 ar
     3    1   37 1
     4    2    3 ar
     5    2   38 1
     6    3    4 ar
     7    3   39 1
     8    4    5 ar
     9    4    7 1
    10    5    6 ar
    11    5   40 1
    12    6   41 1
    13    7   11 1
    14    7    8 1
    15    7   31 1
    16    8    9 1
    17    9   10 1
    18    9   42 1
    19    9   43 1
    20   10   11 1
    21   10   12 1
    22   10   44 1
    23   12   13 1
    24   12   45 1
    25   12   46 1
    26   13   14 1
    27   13   47 1
    28   13   48 1
    29   14   15 2
    30   14   16 am
    31   16   17 1
    32   16   49 1
    33   17   22 ar
    34   17   18 ar
    35   18   19 ar
    36   18   50 1
    37   19   20 ar
    38   19   51 1
    39   20   27 1
    40   20   21 ar
    41   21   22 ar
    42   21   23 1
    43   22   52 1
    44   23   24 1
    45   23   53 1
    46   23   54 1
    47   24   25 1
    48   25   26 1
    49   25   27 1
    50   25   28 1
    51   27   55 1
    52   27   56 1
    53   28   29 2
    54   28   30 1
    55   31   36 ar
    56   31   32 ar
    57   32   33 ar
    58   32   57 1
    59   33   34 ar
    60   33   58 1
    61   34   35 ar
    62   34   59 1
    63   35   36 ar
    64   35   60 1
    65   36   61 1
@<TRIPOS>MOLECULE
CHEMBL287305
   71    76     0     0     0
SMALL
USER_CHARGES

@<TRIPOS>ATOM
      1 C1          0.8993   -6.0652  -11.0779 C.3       1 <0>         0.0262
      2 O1          1.2115   -4.6775  -10.9405 O.3       1 <0>        -0.3194
      3 C2          1.2774   -4.1821   -9.6767 C.ar      1 <0>         0.1271
      4 C3          1.0520   -5.0158   -8.5910 C.ar      1 <0>        -0.2044
      5 C4          1.1201   -4.5100   -7.3073 C.ar      1 <0>        -0.0602
      6 C5          1.4121   -3.1739   -7.1040 C.ar      1 <0>        -0.1189
      7 C6          1.6366   -2.3408   -8.1845 C.ar      1 <0>        -0.0704
      8 C7          1.5758   -2.8431   -9.4699 C.ar      1 <0>        -0.1521
      9 C8          1.4852   -2.6246   -5.7026 C.3       1 <0>         0.0027
     10 C9          2.9106   -2.6771   -5.2162 C.2       1 <0>        -0.0993
     11 C10         3.5056   -3.6346   -4.4661 C.2       1 <0>        -0.0639
     12 C11         4.9149   -3.4762   -4.1088 C.ar      1 <0>        -0.0698
     13 C12         5.7330   -4.3375   -3.3432 C.ar      1 <0>        -0.0714
     14 C13         7.0364   -4.0303   -3.1057 C.ar      1 <0>        -0.1229
     15 C14         7.6092   -2.8676   -3.6029 C.ar      1 <0>        -0.0988
     16 C15         6.8425   -2.0008   -4.3558 C.ar      1 <0>        -0.0796
     17 C16         5.5195   -2.3025   -4.6024 C.ar      1 <0>        -0.1146
     18 S1          4.2166   -1.4976   -5.4979 S.3       1 <0>         0.0297
     19 C17         2.7425   -4.8211   -4.0151 C.ar      1 <0>        -0.0484
     20 C18         1.7002   -4.6737   -3.0988 C.ar      1 <0>        -0.0984
     21 C19         0.9906   -5.7771   -2.6800 C.ar      1 <0>        -0.1192
     22 C20         1.3138   -7.0420   -3.1712 C.ar      1 <0>        -0.0070
     23 C21         2.3557   -7.1898   -4.0866 C.ar      1 <0>        -0.1207
     24 C22         3.0618   -6.0860   -4.5106 C.ar      1 <0>        -0.0954
     25 C23         0.5498   -8.2299   -2.7196 C.ar      1 <0>        -0.1196
     26 C24        -0.4954   -8.0833   -1.8086 C.ar      1 <0>        -0.0600
     27 C25        -1.2040   -9.1901   -1.3906 C.ar      1 <0>        -0.2033
     28 C26        -0.8775  -10.4492   -1.8759 C.ar      1 <0>         0.1805
     29 C27         0.1630  -10.5985   -2.7828 C.ar      1 <0>        -0.1660
     30 C28         0.8714   -9.4950   -3.2095 C.ar      1 <0>        -0.0661
     31 O2         -1.5776  -11.5378   -1.4620 O.3       1 <0>        -0.2875
     32 C29        -2.5698  -11.3268   -0.4555 C.3       1 <0>         0.0224
     33 C30        -2.7826  -12.6223    0.3303 C.3       1 <0>        -0.0642
     34 C31        -1.5217  -12.9682    1.0796 C.ar      1 <0>        -0.0704
     35 C32        -0.5560  -13.7556    0.4811 C.ar      1 <0>        -0.1037
     36 C33         0.6006  -14.0729    1.1685 C.ar      1 <0>        -0.1225
     37 C34         0.7917  -13.6025    2.4542 C.ar      1 <0>        -0.1327
     38 C35        -0.1736  -12.8143    3.0524 C.ar      1 <0>        -0.1228
     39 C36        -1.3283  -12.4934    2.3634 C.ar      1 <0>        -0.1196
     40 C37        -3.8654  -10.9151   -1.1057 C.2       1 <0>         0.4815
     41 O3         -3.9597  -10.8999   -2.3212 O.co2     1 <0>        -0.6701
     42 O4         -4.8194  -10.5971   -0.4163 O.co2     1 <0>        -0.6888
     43 H1          1.6577   -6.6603  -10.5692 H         1 <0>         0.0560
     44 H2         -0.0763   -6.2638  -10.6342 H         1 <0>         0.0574
     45 H3          0.8784   -6.3299  -12.1350 H         1 <0>         0.0997
     46 H4          0.8232   -6.0594   -8.7492 H         1 <0>         0.1291
     47 H5          0.9448   -5.1586   -6.4617 H         1 <0>         0.1272
     48 H6          1.8642   -1.2974   -8.0231 H         1 <0>         0.1271
     49 H7          1.7556   -2.1930  -10.3133 H         1 <0>         0.1297
     50 H8          1.1378   -1.5914   -5.6987 H         1 <0>         0.0908
     51 H9          0.8545   -3.2224   -5.0447 H         1 <0>         0.1004
     52 H10         5.3182   -5.2503   -2.9417 H         1 <0>         0.1254
     53 H11         7.6392   -4.7058   -2.5168 H         1 <0>         0.1263
     54 H12         8.6463   -2.6428   -3.4020 H         1 <0>         0.1325
     55 H13         7.2756   -1.0928   -4.7487 H         1 <0>         0.1295
     56 H14         1.4504   -3.6944   -2.7180 H         1 <0>         0.1212
     57 H15         0.1840   -5.6631   -1.9709 H         1 <0>         0.1269
     58 H16         2.6061   -8.1694   -4.4661 H         1 <0>         0.1254
     59 H17         3.8654   -6.1999   -5.2231 H         1 <0>         0.1183
     60 H18        -0.7497   -7.1042   -1.4304 H         1 <0>         0.1217
     61 H19        -2.0135   -9.0773   -0.6846 H         1 <0>         0.1297
     62 H20         0.4148  -11.5794   -3.1582 H         1 <0>         0.1271
     63 H21         1.6774   -9.6111   -3.9189 H         1 <0>         0.1244
     64 H22        -2.2378  -10.5408    0.2228 H         1 <0>         0.0678
     65 H23        -3.6006  -12.4877    1.0380 H         1 <0>         0.0964
     66 H24        -3.0283  -13.4295   -0.3597 H         1 <0>         0.0787
     67 H25        -0.7053  -14.1232   -0.5234 H         1 <0>         0.1226
     68 H26         1.3548  -14.6887    0.7011 H         1 <0>         0.1171
     69 H27         1.6950  -13.8510    2.9915 H         1 <0>         0.1153
     70 H28        -0.0245  -12.4470    4.0570 H         1 <0>         0.1172
     71 H29        -2.0809  -11.8746    2.8294 H         1 <0>         0.1213
@<TRIPOS>BOND
     1    1    2 1
     2    1   43 1
     3    1   44 1
     4    1   45 1
     5    2    3 1
     6    3    8 ar
     7    3    4 ar
     8    4    5 ar
     9    4   46 1
    10    5    6 ar
    11    5   47 1
    12    6    7 ar
    13    6    9 1
    14    7    8 ar
    15    7   48 1
    16    8   49 1
    17    9   10 1
    18    9   50 1
    19    9   51 1
    20   10   18 1
    21   10   11 2
    22   11   12 1
    23   11   19 1
    24   12   17 ar
    25   12   13 ar
    26   13   14 ar
    27   13   52 1
    28   14   15 ar
    29   14   53 1
    30   15   16 ar
    31   15   54 1
    32   16   17 ar
    33   16   55 1
    34   17   18 1
    35   19   24 ar
    36   19   20 ar
    37   20   21 ar
    38   20   56 1
    39   21   22 ar
    40   21   57 1
    41   22   23 ar
    42   22   25 1
    43   23   24 ar
    44   23   58 1
    45   24   59 1
    46   25   30 ar
    47   25   26 ar
    48   26   27 ar
    49   26   60 1
    50   27   28 ar
    51   27   61 1
    52   28   29 ar
    53   28   31 1
    54   29   30 ar
    55   29   62 1
    56   30   63 1
    57   31   32 1
    58   32   33 1
    59   32   40 1
    60   32   64 1
    61   33   34 1
    62   33   65 1
    63   33   66 1
    64   34   39 ar
    65   34   35 ar
    66   35   36 ar
    67   35   67 1
    68   36   37 ar
    69   36   68 1
    70   37   38 ar
    71   37   69 1
    72   38   39 ar
    73   38   70 1
    74   39   71 1
    75   40   41 2
    76   40   42 1
@<TRIPOS>MOLECULE
CHEMBL287305__1
   71    76     0     0     0
SMALL
USER_CHARGES

@<TRIPOS>ATOM
      1 C1          0.6803   -4.9924  -10.4738 C.3       1 <0>         0.0265
      2 O1          1.1524   -3.6765  -10.1778 O.3       1 <0>        -0.3193
      3 C2          1.3755   -3.3806   -8.8703 C.ar      1 <0>         0.1266
      4 C3          1.1503   -4.3390   -7.8929 C.ar      1 <0>        -0.2049
      5 C4          1.3783   -4.0359   -6.5645 C.ar      1 <0>        -0.0609
      6 C5          1.8302   -2.7785   -6.2088 C.ar      1 <0>        -0.1180
      7 C6          2.0550   -1.8215   -7.1810 C.ar      1 <0>        -0.0701
      8 C7          1.8344   -2.1216   -8.5113 C.ar      1 <0>        -0.1518
      9 C8          2.0776   -2.4505   -4.7589 C.3       1 <0>         0.0035
     10 C9          3.5242   -2.7093   -4.4251 C.2       1 <0>        -0.1012
     11 C10         4.0713   -3.8168   -3.8705 C.2       1 <0>        -0.0623
     12 C11         5.5143   -3.8480   -3.6343 C.ar      1 <0>        -0.0706
     13 C12         6.2942   -4.8845   -3.0734 C.ar      1 <0>        -0.0707
     14 C13         7.6386   -4.7418   -2.9254 C.ar      1 <0>        -0.1224
     15 C14         8.2917   -3.5811   -3.3172 C.ar      1 <0>        -0.0979
     16 C15         7.5643   -2.5460   -3.8699 C.ar      1 <0>        -0.0803
     17 C16         6.2004   -2.6801   -4.0241 C.ar      1 <0>        -0.1140
     18 S1          4.9234   -1.6337   -4.6735 S.3       1 <0>         0.0285
     19 C17         3.2233   -4.9760   -3.5088 C.ar      1 <0>        -0.0490
     20 C18         2.3166   -4.8750   -2.4527 C.ar      1 <0>        -0.0979
     21 C19         1.5279   -5.9529   -2.1171 C.ar      1 <0>        -0.1193
     22 C20         1.6356   -7.1456   -2.8323 C.ar      1 <0>        -0.0069
     23 C21         2.5420   -7.2471   -3.8876 C.ar      1 <0>        -0.1208
     24 C22         3.3266   -6.1676   -4.2278 C.ar      1 <0>        -0.0952
     25 C23         0.7866   -8.3061   -2.4703 C.ar      1 <0>        -0.1196
     26 C24        -0.1237   -8.2048   -1.4190 C.ar      1 <0>        -0.0601
     27 C25        -0.9118   -9.2859   -1.0848 C.ar      1 <0>        -0.2029
     28 C26        -0.7996  -10.4743   -1.7938 C.ar      1 <0>         0.1809
     29 C27         0.1062  -10.5785   -2.8408 C.ar      1 <0>        -0.1661
     30 C28         0.8928   -9.4991   -3.1840 C.ar      1 <0>        -0.0661
     31 O2         -1.5776  -11.5378   -1.4620 O.3       1 <0>        -0.2872
     32 C29        -2.5698  -11.3268   -0.4555 C.3       1 <0>         0.0220
     33 C30        -3.7439  -12.2795   -0.6891 C.3       1 <0>        -0.0646
     34 C31        -4.4184  -11.9354   -1.9921 C.ar      1 <0>        -0.0704
     35 C32        -5.4519  -11.0176   -2.0141 C.ar      1 <0>        -0.1196
     36 C33        -6.0706  -10.7020   -3.2093 C.ar      1 <0>        -0.1227
     37 C34        -5.6555  -11.3037   -4.3825 C.ar      1 <0>        -0.1329
     38 C35        -4.6214  -12.2208   -4.3606 C.ar      1 <0>        -0.1225
     39 C36        -3.9999  -12.5333   -3.1661 C.ar      1 <0>        -0.1040
     40 C37        -1.9717  -11.5903    0.9024 C.2       1 <0>         0.4818
     41 O3         -0.8040  -11.9274    0.9993 O.co2     1 <0>        -0.6702
     42 O4         -2.6554  -11.4663    1.9042 O.co2     1 <0>        -0.6886
     43 H1          1.4083   -5.7260  -10.1277 H         1 <0>         0.0560
     44 H2         -0.2714   -5.1590   -9.9693 H         1 <0>         0.0565
     45 H3          0.5439   -5.0958  -11.5503 H         1 <0>         0.0996
     46 H4          0.7967   -5.3211   -8.1701 H         1 <0>         0.1285
     47 H5          1.2031   -4.7817   -5.8032 H         1 <0>         0.1271
     48 H6          2.4076   -0.8400   -6.9006 H         1 <0>         0.1274
     49 H7          2.0143   -1.3751   -9.2708 H         1 <0>         0.1298
     50 H8          1.8455   -1.4008   -4.5791 H         1 <0>         0.0905
     51 H9          1.4425   -3.0757   -4.1314 H         1 <0>         0.0998
     52 H10         5.8169   -5.8007   -2.7583 H         1 <0>         0.1258
     53 H11         8.2108   -5.5493   -2.4931 H         1 <0>         0.1269
     54 H12         9.3602   -3.4885   -3.1902 H         1 <0>         0.1328
     55 H13         8.0599   -1.6375   -4.1790 H         1 <0>         0.1295
     56 H14         2.2337   -3.9518   -1.8985 H         1 <0>         0.1211
     57 H15         0.8263   -5.8748   -1.2998 H         1 <0>         0.1269
     58 H16         2.6255   -8.1709   -4.4407 H         1 <0>         0.1254
     59 H17         4.0250   -6.2447   -5.0480 H         1 <0>         0.1183
     60 H18        -0.2113   -7.2808   -0.8669 H         1 <0>         0.1216
     61 H19        -1.6169   -9.2082   -0.2704 H         1 <0>         0.1293
     62 H20         0.1914  -11.5044   -3.3902 H         1 <0>         0.1270
     63 H21         1.5935   -9.5791   -4.0019 H         1 <0>         0.1243
     64 H22        -2.9227  -10.2966   -0.5034 H         1 <0>         0.0686
     65 H23        -3.3771  -13.3051   -0.7297 H         1 <0>         0.0781
     66 H24        -4.4594  -12.1815    0.1273 H         1 <0>         0.0974
     67 H25        -5.7762  -10.5475   -1.0975 H         1 <0>         0.1212
     68 H26        -6.8785   -9.9855   -3.2264 H         1 <0>         0.1171
     69 H27        -6.1394  -11.0576   -5.3162 H         1 <0>         0.1151
     70 H28        -4.2974  -12.6912   -5.2772 H         1 <0>         0.1169
     71 H29        -3.1895  -13.2470   -3.1495 H         1 <0>         0.1224
@<TRIPOS>BOND
     1    1    2 1
     2    1   43 1
     3    1   44 1
     4    1   45 1
     5    2    3 1
     6    3    8 ar
     7    3    4 ar
     8    4    5 ar
     9    4   46 1
    10    5    6 ar
    11    5   47 1
    12    6    7 ar
    13    6    9 1
    14    7    8 ar
    15    7   48 1
    16    8   49 1
    17    9   10 1
    18    9   50 1
    19    9   51 1
    20   10   18 1
    21   10   11 2
    22   11   12 1
    23   11   19 1
    24   12   17 ar
    25   12   13 ar
    26   13   14 ar
    27   13   52 1
    28   14   15 ar
    29   14   53 1
    30   15   16 ar
    31   15   54 1
    32   16   17 ar
    33   16   55 1
    34   17   18 1
    35   19   24 ar
    36   19   20 ar
    37   20   21 ar
    38   20   56 1
    39   21   22 ar
    40   21   57 1
    41   22   23 ar
    42   22   25 1
    43   23   24 ar
    44   23   58 1
    45   24   59 1
    46   25   30 ar
    47   25   26 ar
    48   26   27 ar
    49   26   60 1
    50   27   28 ar
    51   27   61 1
    52   28   29 ar
    53   28   31 1
    54   29   30 ar
    55   29   62 1
    56   30   63 1
    57   31   32 1
    58   32   33 1
    59   32   40 1
    60   32   64 1
    61   33   34 1
    62   33   65 1
    63   33   66 1
    64   34   39 ar
    65   34   35 ar
    66   35   36 ar
    67   35   67 1
    68   36   37 ar
    69   36   68 1
    70   37   38 ar
    71   37   69 1
    72   38   39 ar
    73   38   70 1
    74   39   71 1
    75   40   41 2
    76   40   42 1
@<TRIPOS>MOLECULE
CHEMBL453868
   60    64     0     0     0
SMALL
USER_CHARGES

@<TRIPOS>ATOM
      1 C1         -0.0170    1.4054    0.0098 C.2       1 <0>        -0.2111
      2 C2          1.2655    1.8175   -0.0003 C.2       1 <0>        -0.0512
      3 O1          2.0642    0.7373   -0.0137 O.3       1 <0>        -0.1685
      4 C3          1.3092   -0.3779   -0.0125 C.2       1 <0>         0.0645
      5 C4          0.0021   -0.0041    0.0020 C.2       1 <0>        -0.2094
      6 C5          1.8138   -1.7668   -0.0252 C.ar      1 <0>        -0.0855
      7 C6          2.7819   -2.1524   -0.9626 C.ar      1 <0>         0.1715
      8 C7          3.2589   -3.4709   -0.9715 C.ar      1 <0>        -0.1637
      9 C8          2.7678   -4.3948   -0.0467 C.ar      1 <0>        -0.0440
     10 C9          1.8046   -4.0063    0.8832 C.ar      1 <0>        -0.0903
     11 C10         1.3325   -2.6903    0.8968 C.ar      1 <0>        -0.0669
     12 C11         1.2875   -4.9830    1.8578 C.2       1 <0>        -0.0937
     13 C12         1.7444   -6.2470    1.8496 C.2       1 <0>        -0.1190
     14 C13         1.2279   -7.2225    2.8230 C.ar      1 <0>        -0.0510
     15 C14         0.2567   -6.8354    3.7536 C.ar      1 <0>        -0.1141
     16 C15        -0.2224   -7.7404    4.6566 C.ar      1 <0>        -0.1064
     17 C16         0.2572   -9.0552    4.6515 C.ar      1 <0>        -0.0510
     18 C17         1.2277   -9.4425    3.7204 C.ar      1 <0>        -0.1142
     19 C18         1.7037   -8.5387    2.8145 C.ar      1 <0>        -0.1064
     20 C19        -0.2586  -10.0304    5.6255 C.2       1 <0>        -0.1190
     21 C20         0.2020  -11.2931    5.6206 C.2       1 <0>        -0.0937
     22 C21        -0.3144  -12.2695    6.5958 C.ar      1 <0>        -0.0904
     23 C22        -1.2849  -11.8836    7.5193 C.ar      1 <0>        -0.0441
     24 C23        -1.7754  -12.8073    8.4447 C.ar      1 <0>        -0.1641
     25 C24        -1.2904  -14.1229    8.4429 C.ar      1 <0>         0.1717
     26 C25        -0.3150  -14.5059    7.5120 C.ar      1 <0>        -0.0859
     27 C26         0.1657  -13.5826    6.5894 C.ar      1 <0>        -0.0671
     28 C27         0.1984  -15.8916    7.5071 C.2       1 <0>         0.0603
     29 O2          0.6448  -16.5728    8.5797 O.3       1 <0>        -0.1578
     30 C28         1.0321  -17.8016    8.1990 C.2       1 <0>        -0.0503
     31 C29         0.8376  -17.9231    6.8715 C.2       1 <0>        -0.2145
     32 C30         0.2966  -16.7022    6.4200 C.2       1 <0>        -0.2113
     33 O3         -1.7634  -15.0220    9.3395 O.3       1 <0>        -0.4646
     34 C31        -2.7995  -12.4003    9.4208 C.2       1 <0>         0.5225
     35 O4         -3.2216  -11.2521    9.4217 O.co2     1 <0>        -0.6880
     36 O5         -3.2284  -13.2104   10.2310 O.co2     1 <0>        -0.6700
     37 C32         4.2753   -3.8806   -1.9545 C.2       1 <0>         0.5224
     38 O6          4.6907   -5.0313   -1.9614 O.co2     1 <0>        -0.6880
     39 O7          4.7045   -3.0705   -2.7645 O.co2     1 <0>        -0.6699
     40 O8          3.2556   -1.2530   -1.8586 O.3       1 <0>        -0.4664
     41 H1         -0.8939    2.0357    0.0255 H         1 <0>         0.1454
     42 H2          1.5966    2.8454    0.0018 H         1 <0>         0.1990
     43 H3         -0.8558   -0.6602    0.0070 H         1 <0>         0.1471
     44 H4          3.1340   -5.4108   -0.0521 H         1 <0>         0.1382
     45 H5          0.5896   -2.3916    1.6215 H         1 <0>         0.1265
     46 H6          0.5413   -4.6832    2.5788 H         1 <0>         0.1209
     47 H7          2.4906   -6.5468    1.1287 H         1 <0>         0.1275
     48 H8         -0.1134   -5.8208    3.7575 H         1 <0>         0.1243
     49 H9         -0.9713   -7.4416    5.3751 H         1 <0>         0.1253
     50 H10         1.5980  -10.4570    3.7166 H         1 <0>         0.1242
     51 H11         2.4498   -8.8385    2.0936 H         1 <0>         0.1253
     52 H12        -1.0072   -9.7315    6.3443 H         1 <0>         0.1275
     53 H13         0.9506  -11.5920    4.9019 H         1 <0>         0.1209
     54 H14        -1.6573  -10.8699    7.5192 H         1 <0>         0.1381
     55 H15         0.9141  -13.8794    5.8696 H         1 <0>         0.1264
     56 H16         1.4331  -18.5651    8.8491 H         1 <0>         0.1984
     57 H17         1.0518  -18.7928    6.2680 H         1 <0>         0.1450
     58 H18         0.0164  -16.4573    5.4062 H         1 <0>         0.1471
     59 H19        -2.5353  -15.5162    9.0311 H         1 <0>         0.3848
     60 H20         4.0319   -0.7644   -1.5525 H         1 <0>         0.3866
@<TRIPOS>BOND
     1    1    5 1
     2    1    2 2
     3    1   41 1
     4    2    3 1
     5    2   42 1
     6    3    4 1
     7    4    5 2
     8    4    6 1
     9    5   43 1
    10    6   11 ar
    11    6    7 ar
    12    7    8 ar
    13    7   40 1
    14    8    9 ar
    15    8   37 1
    16    9   10 ar
    17    9   44 1
    18   10   11 ar
    19   10   12 1
    20   11   45 1
    21   12   13 2
    22   12   46 1
    23   13   14 1
    24   13   47 1
    25   14   19 ar
    26   14   15 ar
    27   15   16 ar
    28   15   48 1
    29   16   17 ar
    30   16   49 1
    31   17   18 ar
    32   17   20 1
    33   18   19 ar
    34   18   50 1
    35   19   51 1
    36   20   21 2
    37   20   52 1
    38   21   22 1
    39   21   53 1
    40   22   27 ar
    41   22   23 ar
    42   23   24 ar
    43   23   54 1
    44   24   25 ar
    45   24   34 1
    46   25   26 ar
    47   25   33 1
    48   26   27 ar
    49   26   28 1
    50   27   55 1
    51   28   32 2
    52   28   29 1
    53   29   30 1
    54   30   31 2
    55   30   56 1
    56   31   32 1
    57   31   57 1
    58   32   58 1
    59   33   59 1
    60   34   35 2
    61   34   36 1
    62   37   38 2
    63   37   39 1
    64   40   60 1
@<TRIPOS>MOLECULE
CHEMBL24384
   63    67     0     0     0
SMALL
USER_CHARGES

@<TRIPOS>ATOM
      1 C1         -0.8665    1.1207    1.7820 C.3       1 <0>        -0.1531
      2 C2         -0.7641   -0.4038    1.7031 C.3       1 <0>        -0.1247
      3 C3         -0.2512   -0.8097    0.3200 C.3       1 <0>        -0.1180
      4 C4         -0.1488   -2.3342    0.2411 C.3       1 <0>        -0.0400
      5 C5          0.3564   -2.7339   -1.1212 C.2       1 <0>        -0.1030
      6 C6          1.6376   -2.9128   -1.5209 C.2       1 <0>        -0.0683
      7 C7          1.8962   -3.3058   -2.9057 C.ar      1 <0>        -0.0696
      8 C8          3.1374   -3.5456   -3.5376 C.ar      1 <0>        -0.0721
      9 C9          3.1931   -3.9062   -4.8477 C.ar      1 <0>        -0.1224
     10 C10         2.0414   -4.0520   -5.6090 C.ar      1 <0>        -0.0992
     11 C11         0.8097   -3.8269   -5.0273 C.ar      1 <0>        -0.0795
     12 C12         0.7418   -3.4603   -3.6994 C.ar      1 <0>        -0.1153
     13 S1         -0.5908   -3.0914   -2.5880 S.3       1 <0>         0.0235
     14 C13         2.7576   -2.7136   -0.5724 C.ar      1 <0>        -0.0497
     15 C14         3.0058   -1.4470   -0.0417 C.ar      1 <0>        -0.0961
     16 C15         4.0470   -1.2622    0.8405 C.ar      1 <0>        -0.1193
     17 C16         4.8538   -2.3408    1.2033 C.ar      1 <0>        -0.0079
     18 C17         4.6063   -3.6068    0.6727 C.ar      1 <0>        -0.1201
     19 C18         3.5614   -3.7936   -0.2048 C.ar      1 <0>        -0.0971
     20 C19         5.9750   -2.1413    2.1528 C.ar      1 <0>        -0.1170
     21 C20         6.2206   -0.8776    2.6882 C.ar      1 <0>        -0.0601
     22 C21         7.2642   -0.6954    3.5710 C.ar      1 <0>        -0.2007
     23 C22         8.0699   -1.7686    3.9268 C.ar      1 <0>         0.1764
     24 C23         7.8282   -3.0281    3.3951 C.ar      1 <0>        -0.1641
     25 C24         6.7824   -3.2182    2.5165 C.ar      1 <0>        -0.0663
     26 O1          9.0974   -1.5858    4.7969 O.3       1 <0>        -0.2883
     27 C25         9.3641   -0.2451    5.2135 C.3       1 <0>         0.0485
     28 C26        10.8033   -0.1301    5.6453 C.ar      1 <0>        -0.0485
     29 C27        11.4226   -1.1926    6.2765 C.ar      1 <0>        -0.0972
     30 C28        12.7428   -1.0870    6.6725 C.ar      1 <0>        -0.1261
     31 C29        13.4438    0.0809    6.4369 C.ar      1 <0>        -0.1316
     32 C30        12.8248    1.1430    5.8048 C.ar      1 <0>        -0.1245
     33 C31        11.5059    1.0359    5.4050 C.ar      1 <0>        -0.1016
     34 C32         8.4633    0.1106    6.3681 C.2       1 <0>         0.4891
     35 O2          7.7319   -0.7353    6.8539 O.co2     1 <0>        -0.6660
     36 O3          8.4659    1.2444    6.8165 O.co2     1 <0>        -0.6809
     37 H1          0.1171    1.5600    1.6159 H         1 <0>         0.0554
     38 H2         -1.5578    1.4784    1.0188 H         1 <0>         0.0521
     39 H3         -1.2319    1.4098    2.7674 H         1 <0>         0.0551
     40 H4         -0.0729   -0.7615    2.4663 H         1 <0>         0.0662
     41 H5         -1.7477   -0.8431    1.8692 H         1 <0>         0.0614
     42 H6         -0.9425   -0.4520   -0.4432 H         1 <0>         0.0644
     43 H7          0.7324   -0.3704    0.1539 H         1 <0>         0.0710
     44 H8          0.5424   -2.6919    1.0043 H         1 <0>         0.0912
     45 H9         -1.1324   -2.7735    0.4072 H         1 <0>         0.0802
     46 H10         4.0524   -3.4410   -2.9735 H         1 <0>         0.1258
     47 H11         4.1548   -4.0828   -5.3063 H         1 <0>         0.1266
     48 H12         2.1084   -4.3388   -6.6480 H         1 <0>         0.1326
     49 H13        -0.0942   -3.9367   -5.6081 H         1 <0>         0.1295
     50 H14         2.3817   -0.6117   -0.3230 H         1 <0>         0.1227
     51 H15         4.2392   -0.2821    1.2513 H         1 <0>         0.1268
     52 H16         5.2316   -4.4415    0.9532 H         1 <0>         0.1263
     53 H17         3.3669   -4.7748   -0.6119 H         1 <0>         0.1195
     54 H18         5.5944   -0.0423    2.4116 H         1 <0>         0.1226
     55 H19         7.4552    0.2833    3.9859 H         1 <0>         0.1303
     56 H20         8.4570   -3.8609    3.6735 H         1 <0>         0.1287
     57 H21         6.5917   -4.1993    2.1072 H         1 <0>         0.1260
     58 H22         9.1779    0.4369    4.3839 H         1 <0>         0.0761
     59 H23        10.8749   -2.1050    6.4606 H         1 <0>         0.1257
     60 H24        13.2264   -1.9169    7.1663 H         1 <0>         0.1182
     61 H25        14.4751    0.1636    6.7469 H         1 <0>         0.1162
     62 H26        13.3724    2.0556    5.6211 H         1 <0>         0.1190
     63 H27        11.0233    1.8644    4.9079 H         1 <0>         0.1210
@<TRIPOS>BOND
     1    1    2 1
     2    1   37 1
     3    1   38 1
     4    1   39 1
     5    2    3 1
     6    2   40 1
     7    2   41 1
     8    3    4 1
     9    3   42 1
    10    3   43 1
    11    4    5 1
    12    4   44 1
    13    4   45 1
    14    5   13 1
    15    5    6 2
    16    6    7 1
    17    6   14 1
    18    7   12 ar
    19    7    8 ar
    20    8    9 ar
    21    8   46 1
    22    9   10 ar
    23    9   47 1
    24   10   11 ar
    25   10   48 1
    26   11   12 ar
    27   11   49 1
    28   12   13 1
    29   14   19 ar
    30   14   15 ar
    31   15   16 ar
    32   15   50 1
    33   16   17 ar
    34   16   51 1
    35   17   18 ar
    36   17   20 1
    37   18   19 ar
    38   18   52 1
    39   19   53 1
    40   20   25 ar
    41   20   21 ar
    42   21   22 ar
    43   21   54 1
    44   22   23 ar
    45   22   55 1
    46   23   24 ar
    47   23   26 1
    48   24   25 ar
    49   24   56 1
    50   25   57 1
    51   26   27 1
    52   27   28 1
    53   27   34 1
    54   27   58 1
    55   28   33 ar
    56   28   29 ar
    57   29   30 ar
    58   29   59 1
    59   30   31 ar
    60   30   60 1
    61   31   32 ar
    62   31   61 1
    63   32   33 ar
    64   32   62 1
    65   33   63 1
    66   34   35 2
    67   34   36 1
@<TRIPOS>MOLECULE
CHEMBL24384__1
   63    67     0     0     0
SMALL
USER_CHARGES

@<TRIPOS>ATOM
      1 C1          0.5914    2.1573   -0.6191 C.3       1 <0>        -0.1533
      2 C2          0.3971    0.6491   -0.4498 C.3       1 <0>        -0.1239
      3 C3          1.0580   -0.0846   -1.6185 C.3       1 <0>        -0.1189
      4 C4          0.8637   -1.5928   -1.4492 C.3       1 <0>        -0.0389
      5 C5          1.5146   -2.3155   -2.6002 C.2       1 <0>        -0.1051
      6 C6          2.7842   -2.7778   -2.6894 C.2       1 <0>        -0.0666
      7 C7          3.2031   -3.4566   -3.9153 C.ar      1 <0>        -0.0705
      8 C8          4.4635   -4.0139   -4.2285 C.ar      1 <0>        -0.0716
      9 C9          4.6802   -4.6135   -5.4298 C.ar      1 <0>        -0.1220
     10 C10         3.6789   -4.7009   -6.3873 C.ar      1 <0>        -0.0984
     11 C11         2.4336   -4.1686   -6.1186 C.ar      1 <0>        -0.0801
     12 C12         2.2032   -3.5580   -4.9036 C.ar      1 <0>        -0.1148
     13 S1          0.7945   -2.7720   -4.1652 S.3       1 <0>         0.0226
     14 C13         3.7320   -2.5989   -1.5655 C.ar      1 <0>        -0.0501
     15 C14         4.1307   -1.3164   -1.1862 C.ar      1 <0>        -0.0960
     16 C15         5.0117   -1.1504   -0.1408 C.ar      1 <0>        -0.1194
     17 C16         5.5059   -2.2639    0.5385 C.ar      1 <0>        -0.0077
     18 C17         5.1080   -3.5459    0.1594 C.ar      1 <0>        -0.1202
     19 C18         4.2222   -3.7124   -0.8819 C.ar      1 <0>        -0.0971
     20 C19         6.4548   -2.0847    1.6637 C.ar      1 <0>        -0.1172
     21 C20         6.8496   -0.8038    2.0474 C.ar      1 <0>        -0.0605
     22 C21         7.7323   -0.6405    3.0943 C.ar      1 <0>        -0.1988
     23 C22         8.2278   -1.7500    3.7658 C.ar      1 <0>         0.1775
     24 C23         7.8371   -3.0269    3.3859 C.ar      1 <0>        -0.1643
     25 C24         6.9498   -3.1966    2.3439 C.ar      1 <0>        -0.0666
     26 O1          9.0974   -1.5858    4.7969 O.3       1 <0>        -0.2886
     27 C25         9.3641   -0.2451    5.2135 C.3       1 <0>         0.0481
     28 C26         9.8088   -0.2456    6.6534 C.ar      1 <0>        -0.0462
     29 C27        10.6632   -1.2305    7.1126 C.ar      1 <0>        -0.0958
     30 C28        11.0712   -1.2309    8.4333 C.ar      1 <0>        -0.1257
     31 C29        10.6251   -0.2462    9.2948 C.ar      1 <0>        -0.1309
     32 C30         9.7715    0.7393    8.8355 C.ar      1 <0>        -0.1247
     33 C31         9.3669    0.7421    7.5136 C.ar      1 <0>        -0.1024
     34 C32        10.4522    0.3417    4.3518 C.2       1 <0>         0.4885
     35 O2         10.9531   -0.3263    3.4633 O.co2     1 <0>        -0.6664
     36 O3         10.8318    1.4844    4.5432 O.co2     1 <0>        -0.6804
     37 H1          1.6569    2.3866   -0.6363 H         1 <0>         0.0556
     38 H2          0.1353    2.4796   -1.5551 H         1 <0>         0.0526
     39 H3          0.1206    2.6800    0.2135 H         1 <0>         0.0545
     40 H4          0.8533    0.3268    0.4862 H         1 <0>         0.0652
     41 H5         -0.6683    0.4197   -0.4326 H         1 <0>         0.0612
     42 H6          0.6018    0.2377   -2.5545 H         1 <0>         0.0647
     43 H7          2.1235    0.1448   -1.6356 H         1 <0>         0.0714
     44 H8          1.3199   -1.9151   -0.5131 H         1 <0>         0.0904
     45 H9         -0.2018   -1.8221   -1.4320 H         1 <0>         0.0797
     46 H10         5.2641   -3.9628   -3.5054 H         1 <0>         0.1263
     47 H11         5.6531   -5.0307   -5.6438 H         1 <0>         0.1272
     48 H12         3.8725   -5.1810   -7.3351 H         1 <0>         0.1329
     49 H13         1.6457   -4.2297   -6.8546 H         1 <0>         0.1295
     50 H14         3.7486   -0.4542   -1.7126 H         1 <0>         0.1226
     51 H15         5.3203   -0.1579    0.1528 H         1 <0>         0.1268
     52 H16         5.4914   -4.4078    0.6851 H         1 <0>         0.1263
     53 H17         3.9105   -4.7048   -1.1723 H         1 <0>         0.1195
     54 H18         6.4647    0.0597    1.5252 H         1 <0>         0.1224
     55 H19         8.0387    0.3515    3.3918 H         1 <0>         0.1295
     56 H20         8.2246   -3.8880    3.9100 H         1 <0>         0.1285
     57 H21         6.6422   -4.1899    2.0521 H         1 <0>         0.1258
     58 H22         8.4586    0.3534    5.1131 H         1 <0>         0.0755
     59 H23        11.0117   -1.9999    6.4395 H         1 <0>         0.1248
     60 H24        11.7382   -2.0008    8.7922 H         1 <0>         0.1182
     61 H25        10.9433   -0.2469   10.3269 H         1 <0>         0.1162
     62 H26         9.4227    1.5084    9.5086 H         1 <0>         0.1189
     63 H27         8.7029    1.5142    7.1538 H         1 <0>         0.1199
@<TRIPOS>BOND
     1    1    2 1
     2    1   37 1
     3    1   38 1
     4    1   39 1
     5    2    3 1
     6    2   40 1
     7    2   41 1
     8    3    4 1
     9    3   42 1
    10    3   43 1
    11    4    5 1
    12    4   44 1
    13    4   45 1
    14    5   13 1
    15    5    6 2
    16    6    7 1
    17    6   14 1
    18    7   12 ar
    19    7    8 ar
    20    8    9 ar
    21    8   46 1
    22    9   10 ar
    23    9   47 1
    24   10   11 ar
    25   10   48 1
    26   11   12 ar
    27   11   49 1
    28   12   13 1
    29   14   19 ar
    30   14   15 ar
    31   15   16 ar
    32   15   50 1
    33   16   17 ar
    34   16   51 1
    35   17   18 ar
    36   17   20 1
    37   18   19 ar
    38   18   52 1
    39   19   53 1
    40   20   25 ar
    41   20   21 ar
    42   21   22 ar
    43   21   54 1
    44   22   23 ar
    45   22   55 1
    46   23   24 ar
    47   23   26 1
    48   24   25 ar
    49   24   56 1
    50   25   57 1
    51   26   27 1
    52   27   28 1
    53   27   34 1
    54   27   58 1
    55   28   33 ar
    56   28   29 ar
    57   29   30 ar
    58   29   59 1
    59   30   31 ar
    60   30   60 1
    61   31   32 ar
    62   31   61 1
    63   32   33 ar
    64   32   62 1
    65   33   63 1
    66   34   35 2
    67   34   36 1
@<TRIPOS>MOLECULE
CHEMBL215335
   36    37     0     0     0
SMALL
USER_CHARGES

@<TRIPOS>ATOM
      1 C1         -0.0135    1.3839   -0.1314 C.ar      1 <0>        -0.0800
      2 C2          1.1702    2.0886   -0.1335 C.ar      1 <0>        -0.1556
      3 C3          2.3818    1.4161   -0.0182 C.ar      1 <0>         0.1596
      4 C4          2.4032    0.0308    0.0996 C.ar      1 <0>        -0.1216
      5 C5          1.2232   -0.6802    0.1024 C.ar      1 <0>        -0.0650
      6 C6          0.0043   -0.0078   -0.0132 C.ar      1 <0>        -0.0215
      7 C7         -1.2627   -0.7666   -0.0101 C.2       1 <0>        -0.1102
      8 C8         -1.5922   -1.9093   -0.7206 C.2       1 <0>        -0.1255
      9 C9         -2.8421   -2.4487   -0.5602 C.2       1 <0>         0.1056
     10 C10        -3.7292   -1.8185    0.3158 C.2       1 <0>        -0.1529
     11 S1         -2.7550   -0.4483    0.9159 S.3       1 <0>         0.1294
     12 C11        -5.0509   -2.1759    0.6456 C.2       1 <0>         0.4911
     13 O1         -5.6091   -3.2511    0.0895 O.co2     1 <0>        -0.6418
     14 O2         -5.7437   -1.4390    1.5139 O.co2     1 <0>        -0.7152
     15 O3         -3.2090   -3.5671   -1.2361 O.3       1 <0>        -0.2682
     16 C12        -2.9508   -4.8218   -0.6028 C.3       1 <0>         0.0205
     17 C13        -3.4218   -5.9412   -1.4950 C.2       1 <0>         0.5141
     18 O4         -3.9314   -5.6880   -2.5733 O.co2     1 <0>        -0.6744
     19 O5         -3.2934   -7.1001   -1.1386 O.co2     1 <0>        -0.7108
     20 Br1        -0.3409   -2.7099   -1.8907 Br        1 <0>        -0.0364
     21 N1          3.5805    2.1340   -0.0211 N.am      1 <0>        -0.6905
     22 C14         4.6119    1.7264    0.7447 C.2       1 <0>         0.5033
     23 O6          4.5319    0.6887    1.3674 O.2       1 <0>        -0.4605
     24 C15         5.8646    2.5601    0.8273 C.3       1 <0>        -0.2053
     25 C16         6.8558    1.8881    1.7421 C.2       1 <0>         0.4939
     26 O7          6.5714    0.8302    2.2774 O.co2     1 <0>        -0.6509
     27 O8          7.9422    2.4022    1.9469 O.co2     1 <0>        -0.7124
     28 H1         -0.9544    1.9073   -0.2165 H         1 <0>         0.1264
     29 H2          1.1572    3.1646   -0.2251 H         1 <0>         0.1227
     30 H3          3.3460   -0.4885    0.1886 H         1 <0>         0.1427
     31 H4          1.2406   -1.7562    0.1936 H         1 <0>         0.1294
     32 H5         -1.8805   -4.9253   -0.4243 H         1 <0>         0.0363
     33 H6         -3.4835   -4.8658    0.3472 H         1 <0>         0.0507
     34 H7          3.6703    2.9256   -0.5743 H         1 <0>         0.4007
     35 H8          6.2992    2.6623   -0.1670 H         1 <0>         0.0860
     36 H9          5.6191    3.5469    1.2197 H         1 <0>         0.0862
@<TRIPOS>BOND
     1    1    6 ar
     2    1    2 ar
     3    1   28 1
     4    2    3 ar
     5    2   29 1
     6    3    4 ar
     7    3   21 1
     8    4    5 ar
     9    4   30 1
    10    5    6 ar
    11    5   31 1
    12    6    7 1
    13    7   11 1
    14    7    8 2
    15    8    9 1
    16    8   20 1
    17    9   10 2
    18    9   15 1
    19   10   11 1
    20   10   12 1
    21   12   13 2
    22   12   14 1
    23   15   16 1
    24   16   17 1
    25   16   32 1
    26   16   33 1
    27   17   18 2
    28   17   19 1
    29   21   22 am
    30   21   34 1
    31   22   23 2
    32   22   24 1
    33   24   25 1
    34   24   35 1
    35   24   36 1
    36   25   26 2
    37   25   27 1
@<TRIPOS>MOLECULE
CHEMBL280647
   52    55     0     0     0
SMALL
USER_CHARGES

@<TRIPOS>ATOM
      1 C1         -0.0187    1.5258    0.0104 C.3       1 <0>        -0.1541
      2 C2          0.0021   -0.0041    0.0020 C.3       1 <0>        -0.1245
      3 C3          0.7182   -0.4975   -1.2568 C.3       1 <0>        -0.1222
      4 C4          0.7390   -2.0273   -1.2652 C.3       1 <0>        -0.0521
      5 C5          1.4443   -2.5133   -2.5051 C.2       1 <0>         0.0621
      6 C6          2.7591   -2.7558   -2.5944 C.2       1 <0>        -0.2093
      7 C7          2.9995   -3.2067   -3.9704 C.ar      1 <0>        -0.1109
      8 C8          4.1300   -3.6047   -4.6824 C.ar      1 <0>        -0.0806
      9 C9          4.0097   -3.9764   -5.9928 C.ar      1 <0>        -0.1278
     10 C10         2.7707   -3.9592   -6.6169 C.ar      1 <0>        -0.0950
     11 C11         1.6418   -3.5686   -5.9289 C.ar      1 <0>        -0.1016
     12 C12         1.7420   -3.1876   -4.5966 C.ar      1 <0>         0.0519
     13 O1          0.8447   -2.7720   -3.6803 O.3       1 <0>        -0.1876
     14 C13         3.7849   -2.5974   -1.5018 C.3       1 <0>         0.2236
     15 C14         4.6032   -1.3579   -1.7569 C.ar      1 <0>        -0.1069
     16 C15         5.6327   -1.3898   -2.6801 C.ar      1 <0>        -0.1049
     17 C16         6.3851   -0.2576   -2.9181 C.ar      1 <0>        -0.1049
     18 C17         6.1060    0.9194   -2.2262 C.ar      1 <0>        -0.0409
     19 C18         5.0676    0.9459   -1.2972 C.ar      1 <0>        -0.1060
     20 C19         4.3183   -0.1909   -1.0710 C.ar      1 <0>        -0.1042
     21 C20         6.9116    2.1397   -2.4773 C.ar      1 <0>        -0.0554
     22 C21         7.9464    2.1133   -3.4106 C.ar      1 <0>        -0.0932
     23 C22         8.6933    3.2493   -3.6423 C.ar      1 <0>        -0.1420
     24 C23         8.4155    4.4181   -2.9466 C.ar      1 <0>         0.1074
     25 C24         7.3854    4.4474   -2.0164 C.ar      1 <0>        -0.1420
     26 C25         6.6314    3.3162   -1.7846 C.ar      1 <0>        -0.0930
     27 O2          9.1536    5.5355   -3.1763 O.3       1 <0>        -0.4993
     28 O3          4.6432   -3.7397   -1.4849 O.3       1 <0>        -0.5433
     29 H1          1.0039    1.9031    0.0027 H         1 <0>         0.0546
     30 H2         -0.5459    1.8868   -0.8726 H         1 <0>         0.0545
     31 H3         -0.5289    1.8773    0.9072 H         1 <0>         0.0565
     32 H4          0.5293   -0.3651    0.8851 H         1 <0>         0.0652
     33 H5         -1.0205   -0.3814    0.0098 H         1 <0>         0.0652
     34 H6          0.1910   -0.1364   -2.1398 H         1 <0>         0.0688
     35 H7          1.7408   -0.1202   -1.2645 H         1 <0>         0.0719
     36 H8          1.2661   -2.3884   -0.3821 H         1 <0>         0.0989
     37 H9         -0.2836   -2.4046   -1.2575 H         1 <0>         0.0899
     38 H10         5.0968   -3.6190   -4.2012 H         1 <0>         0.1213
     39 H11         4.8848   -4.2849   -6.5455 H         1 <0>         0.1313
     40 H12         2.6899   -4.2545   -7.6526 H         1 <0>         0.1368
     41 H13         0.6822   -3.5586   -6.4244 H         1 <0>         0.1331
     42 H14         3.2802   -2.5079   -0.5398 H         1 <0>         0.1171
     43 H15         5.8484   -2.3027   -3.2156 H         1 <0>         0.1196
     44 H16         7.1889   -0.2837   -3.6389 H         1 <0>         0.1274
     45 H17         4.8470    1.8554   -0.7581 H         1 <0>         0.1280
     46 H18         3.5105   -0.1703   -0.3545 H         1 <0>         0.1275
     47 H19         8.1634    1.2041   -3.9516 H         1 <0>         0.1303
     48 H20         9.4953    3.2294   -4.3654 H         1 <0>         0.1318
     49 H21         7.1718    5.3581   -1.4764 H         1 <0>         0.1319
     50 H22         5.8275    3.3407   -1.0638 H         1 <0>         0.1305
     51 H23         8.8021    6.1020   -3.8768 H         1 <0>         0.3924
     52 H24         5.1257   -3.8814   -2.3109 H         1 <0>         0.3721
@<TRIPOS>BOND
     1    1    2 1
     2    1   29 1
     3    1   30 1
     4    1   31 1
     5    2    3 1
     6    2   32 1
     7    2   33 1
     8    3    4 1
     9    3   34 1
    10    3   35 1
    11    4    5 1
    12    4   36 1
    13    4   37 1
    14    5   13 1
    15    5    6 2
    16    6    7 1
    17    6   14 1
    18    7   12 ar
    19    7    8 ar
    20    8    9 ar
    21    8   38 1
    22    9   10 ar
    23    9   39 1
    24   10   11 ar
    25   10   40 1
    26   11   12 ar
    27   11   41 1
    28   12   13 1
    29   14   15 1
    30   14   28 1
    31   14   42 1
    32   15   20 ar
    33   15   16 ar
    34   16   17 ar
    35   16   43 1
    36   17   18 ar
    37   17   44 1
    38   18   19 ar
    39   18   21 1
    40   19   20 ar
    41   19   45 1
    42   20   46 1
    43   21   26 ar
    44   21   22 ar
    45   22   23 ar
    46   22   47 1
    47   23   24 ar
    48   23   48 1
    49   24   25 ar
    50   24   27 1
    51   25   26 ar
    52   25   49 1
    53   26   50 1
    54   27   51 1
    55   28   52 1
@<TRIPOS>MOLECULE
CHEMBL280647__1
   52    55     0     0     0
SMALL
USER_CHARGES

@<TRIPOS>ATOM
      1 C1         -0.0187    1.5258    0.0104 C.3       1 <0>        -0.1546
      2 C2          0.0021   -0.0041    0.0020 C.3       1 <0>        -0.1240
      3 C3          0.7182   -0.4975   -1.2568 C.3       1 <0>        -0.1193
      4 C4          0.7390   -2.0273   -1.2652 C.3       1 <0>        -0.0511
      5 C5          1.4443   -2.5133   -2.5051 C.2       1 <0>         0.0619
      6 C6          2.7591   -2.7558   -2.5944 C.2       1 <0>        -0.2090
      7 C7          2.9995   -3.2067   -3.9704 C.ar      1 <0>        -0.1112
      8 C8          4.1300   -3.6047   -4.6824 C.ar      1 <0>        -0.0794
      9 C9          4.0097   -3.9764   -5.9928 C.ar      1 <0>        -0.1280
     10 C10         2.7707   -3.9592   -6.6169 C.ar      1 <0>        -0.0948
     11 C11         1.6418   -3.5686   -5.9289 C.ar      1 <0>        -0.1018
     12 C12         1.7420   -3.1876   -4.5966 C.ar      1 <0>         0.0518
     13 O1          0.8447   -2.7720   -3.6803 O.3       1 <0>        -0.1875
     14 C13         3.7849   -2.5974   -1.5018 C.3       1 <0>         0.2239
     15 C14         4.1769   -3.9557   -0.9800 C.ar      1 <0>        -0.1080
     16 C15         5.1687   -4.6789   -1.6179 C.ar      1 <0>        -0.1043
     17 C16         5.5321   -5.9232   -1.1441 C.ar      1 <0>        -0.1045
     18 C17         4.8978   -6.4507   -0.0210 C.ar      1 <0>        -0.0415
     19 C18         3.8994   -5.7178    0.6176 C.ar      1 <0>        -0.1059
     20 C19         3.5477   -4.4722    0.1383 C.ar      1 <0>        -0.1041
     21 C20         5.2838   -7.7880    0.4926 C.ar      1 <0>        -0.0555
     22 C21         6.2863   -8.5178   -0.1439 C.ar      1 <0>        -0.0931
     23 C22         6.6432   -9.7604    0.3361 C.ar      1 <0>        -0.1419
     24 C23         6.0048  -10.2847    1.4519 C.ar      1 <0>         0.1073
     25 C24         5.0059   -9.5601    2.0880 C.ar      1 <0>        -0.1420
     26 C25         4.6487   -8.3145    1.6160 C.ar      1 <0>        -0.0932
     27 O2          6.3580  -11.5096    1.9221 O.3       1 <0>        -0.4993
     28 O3          4.9391   -1.9364   -2.0242 O.3       1 <0>        -0.5430
     29 H1          1.0039    1.9031    0.0027 H         1 <0>         0.0555
     30 H2         -0.5459    1.8868   -0.8726 H         1 <0>         0.0546
     31 H3         -0.5289    1.8773    0.9072 H         1 <0>         0.0563
     32 H4          0.5293   -0.3651    0.8851 H         1 <0>         0.0647
     33 H5         -1.0205   -0.3814    0.0098 H         1 <0>         0.0646
     34 H6          0.1910   -0.1364   -2.1398 H         1 <0>         0.0692
     35 H7          1.7408   -0.1202   -1.2645 H         1 <0>         0.0710
     36 H8          1.2661   -2.3884   -0.3821 H         1 <0>         0.0964
     37 H9         -0.2836   -2.4046   -1.2575 H         1 <0>         0.0898
     38 H10         5.0968   -3.6190   -4.2012 H         1 <0>         0.1207
     39 H11         4.8848   -4.2849   -6.5455 H         1 <0>         0.1312
     40 H12         2.6899   -4.2545   -7.6526 H         1 <0>         0.1368
     41 H13         0.6822   -3.5586   -6.4244 H         1 <0>         0.1331
     42 H14         3.3628   -2.0044   -0.6904 H         1 <0>         0.1179
     43 H15         5.6593   -4.2692   -2.4884 H         1 <0>         0.1194
     44 H16         6.3063   -6.4871   -1.6431 H         1 <0>         0.1277
     45 H17         3.4046   -6.1219    1.4884 H         1 <0>         0.1283
     46 H18         2.7771   -3.9014    0.6351 H         1 <0>         0.1256
     47 H19         6.7827   -8.1108   -1.0123 H         1 <0>         0.1304
     48 H20         7.4199  -10.3263   -0.1566 H         1 <0>         0.1319
     49 H21         4.5108   -9.9706    2.9556 H         1 <0>         0.1319
     50 H22         3.8744   -7.7495    2.1137 H         1 <0>         0.1306
     51 H23         7.0656  -11.4890    2.5808 H         1 <0>         0.3925
     52 H24         5.3674   -2.4086   -2.7513 H         1 <0>         0.3721
@<TRIPOS>BOND
     1    1    2 1
     2    1   29 1
     3    1   30 1
     4    1   31 1
     5    2    3 1
     6    2   32 1
     7    2   33 1
     8    3    4 1
     9    3   34 1
    10    3   35 1
    11    4    5 1
    12    4   36 1
    13    4   37 1
    14    5   13 1
    15    5    6 2
    16    6    7 1
    17    6   14 1
    18    7   12 ar
    19    7    8 ar
    20    8    9 ar
    21    8   38 1
    22    9   10 ar
    23    9   39 1
    24   10   11 ar
    25   10   40 1
    26   11   12 ar
    27   11   41 1
    28   12   13 1
    29   14   15 1
    30   14   28 1
    31   14   42 1
    32   15   20 ar
    33   15   16 ar
    34   16   17 ar
    35   16   43 1
    36   17   18 ar
    37   17   44 1
    38   18   19 ar
    39   18   21 1
    40   19   20 ar
    41   19   45 1
    42   20   46 1
    43   21   26 ar
    44   21   22 ar
    45   22   23 ar
    46   22   47 1
    47   23   24 ar
    48   23   48 1
    49   24   25 ar
    50   24   27 1
    51   25   26 ar
    52   25   49 1
    53   26   50 1
    54   27   51 1
    55   28   52 1
@<TRIPOS>MOLECULE
CHEMBL551671
   50    52     0     0     0
SMALL
USER_CHARGES

@<TRIPOS>ATOM
      1 C1          0.1197    1.1565    0.7603 C.ar      1 <0>        -0.1185
      2 C2          1.3063    1.8605    0.7539 C.ar      1 <0>        -0.1013
      3 C3          2.3817    1.4147    0.0015 C.ar      1 <0>        -0.0704
      4 C4          2.2701    0.2589   -0.7445 C.ar      1 <0>        -0.0964
      5 C5          1.0803   -0.4497   -0.7435 C.ar      1 <0>        -0.1383
      6 C6          0.0024   -0.0045    0.0077 C.ar      1 <0>         0.1292
      7 N1         -1.1985   -0.7228    0.0071 N.am      1 <0>        -0.6730
      8 C7         -2.3731   -0.0718    0.1211 C.2       1 <0>         0.5084
      9 O1         -2.3962    1.1408    0.1280 O.2       1 <0>        -0.5188
     10 C8         -3.6578   -0.8506    0.2401 C.3       1 <0>        -0.1381
     11 C9         -4.8342    0.1208    0.3555 C.3       1 <0>        -0.1041
     12 C10        -6.1385   -0.6700    0.4762 C.3       1 <0>        -0.1222
     13 C11        -7.3149    0.3014    0.5917 C.3       1 <0>        -0.0988
     14 C12        -8.6192   -0.4893    0.7124 C.3       1 <0>        -0.0599
     15 H1         -8.7038   -1.1779   -0.1283 H         1 <0>         0.0880
     16 C13        -9.7992    0.4759    0.6964 C.3       1 <0>        -0.1230
     17 C14       -11.1116   -0.2742    0.4992 C.3       1 <0>        -0.0931
     18 S1        -11.5428   -1.1801    2.0101 S.3       1 <0>        -0.2342
     19 C15       -10.1733   -2.3561    2.2130 C.3       1 <0>        -0.0625
     20 S2         -8.6109   -1.4306    2.2626 S.3       1 <0>        -0.2171
     21 C16         3.4216   -0.2633   -1.5638 C.3       1 <0>         0.0925
     22 O2          4.4066    0.7546   -1.7380 O.3       1 <0>        -0.3435
     23 C17         4.8132    1.3614   -0.5062 C.3       1 <0>         0.0223
     24 H2          5.0543    0.5867    0.2216 H         1 <0>         0.0543
     25 C18         3.6582    2.2169    0.0172 C.3       1 <0>        -0.0928
     26 C19         6.0234    2.2275   -0.7436 C.2       1 <0>         0.5063
     27 O3          6.4424    2.3922   -1.8766 O.co2     1 <0>        -0.6729
     28 O4          6.5834    2.7635    0.1974 O.co2     1 <0>        -0.6912
     29 H3         -0.7137    1.5048    1.3524 H         1 <0>         0.1307
     30 H4          1.3975    2.7643    1.3381 H         1 <0>         0.1264
     31 H5          0.9910   -1.3519   -1.3304 H         1 <0>         0.1232
     32 H6         -1.1856   -1.6892   -0.0754 H         1 <0>         0.4083
     33 H7         -3.7874   -1.4748   -0.6441 H         1 <0>         0.0945
     34 H8         -3.6192   -1.4817    1.1279 H         1 <0>         0.0968
     35 H9         -4.7046    0.7450    1.2396 H         1 <0>         0.0723
     36 H10        -4.8728    0.7518   -0.5324 H         1 <0>         0.0711
     37 H11        -6.2681   -1.2942   -0.4079 H         1 <0>         0.0637
     38 H12        -6.0999   -1.3010    1.3641 H         1 <0>         0.0746
     39 H13        -7.1853    0.9256    1.4758 H         1 <0>         0.0774
     40 H14        -7.3535    0.9325   -0.2962 H         1 <0>         0.0819
     41 H15        -9.8335    1.0157    1.6427 H         1 <0>         0.0926
     42 H16        -9.6680    1.1889   -0.1175 H         1 <0>         0.0881
     43 H17       -11.9035    0.4377    0.2660 H         1 <0>         0.1159
     44 H18       -11.0055   -0.9778   -0.3265 H         1 <0>         0.0841
     45 H19       -10.3006   -2.9077    3.1445 H         1 <0>         0.1440
     46 H20       -10.1615   -3.0513    1.3735 H         1 <0>         0.1017
     47 H21         3.8701   -1.1159   -1.0538 H         1 <0>         0.0569
     48 H22         3.0551   -0.5816   -2.5398 H         1 <0>         0.0967
     49 H23         3.5418    3.0958   -0.6169 H         1 <0>         0.0821
     50 H24         3.8750    2.5333    1.0375 H         1 <0>         0.0861
@<TRIPOS>BOND
     1    1    6 ar
     2    1    2 ar
     3    1   29 1
     4    2    3 ar
     5    2   30 1
     6    3   25 1
     7    3    4 ar
     8    4    5 ar
     9    4   21 1
    10    5    6 ar
    11    5   31 1
    12    6    7 1
    13    7    8 am
    14    7   32 1
    15    8    9 2
    16    8   10 1
    17   10   11 1
    18   10   33 1
    19   10   34 1
    20   11   12 1
    21   11   35 1
    22   11   36 1
    23   12   13 1
    24   12   37 1
    25   12   38 1
    26   13   14 1
    27   13   39 1
    28   13   40 1
    29   14   15 1
    30   14   20 1
    31   14   16 1
    32   16   17 1
    33   16   41 1
    34   16   42 1
    35   17   18 1
    36   17   43 1
    37   17   44 1
    38   18   19 1
    39   19   20 1
    40   19   45 1
    41   19   46 1
    42   21   22 1
    43   21   47 1
    44   21   48 1
    45   22   23 1
    46   23   24 1
    47   23   25 1
    48   23   26 1
    49   25   49 1
    50   25   50 1
    51   26   27 2
    52   26   28 1
@<TRIPOS>MOLECULE
CHEMBL501267
  110   114     0     0     0
SMALL
USER_CHARGES

@<TRIPOS>ATOM
      1 C1          0.2055    1.4865    0.0402 C.3       1 <0>        -0.1619
      2 C2          0.2180   -0.0359    0.0279 C.3       1 <0>        -0.0394
      3 C3         -1.1793   -0.4974    0.4067 C.3       1 <0>        -0.1170
      4 C4         -1.6392   -0.0215    1.7941 C.3       1 <0>        -0.1449
      5 C5         -0.7285   -0.6098    2.8559 C.3       1 <0>         0.1206
      6 H1         -0.8343   -1.7440    2.8036 H         1 <0>         0.0379
      7 C6          0.7200   -0.3416    2.5702 C.3       1 <0>        -0.0340
      8 C7          1.1274   -0.5515    1.1590 C.3       1 <0>        -0.0572
      9 H2          1.1208   -1.6644    0.9926 H         1 <0>         0.0496
     10 C8          2.5840   -0.1143    0.8078 C.3       1 <0>        -0.1217
     11 C9          3.0579   -0.8231   -0.4612 C.3       1 <0>        -0.1034
     12 C10         2.1553   -0.3668   -1.5894 C.3       1 <0>        -0.0315
     13 C11         0.5933   -0.5401   -1.2810 C.3       1 <0>        -0.0517
     14 H3          0.3719   -1.6187   -1.2848 H         1 <0>         0.0679
     15 C12        -0.1414    0.1106   -2.3897 C.3       1 <0>        -0.0698
     16 C13         0.3175   -0.4904   -3.7099 C.2       1 <0>        -0.1700
     17 C14         1.4240   -1.0225   -3.9858 C.2       1 <0>        -0.0886
     18 C15         2.4362   -1.2943   -2.8604 C.3       1 <0>        -0.0086
     19 C16         3.8875   -1.0199   -3.3044 C.3       1 <0>        -0.1137
     20 C17         4.1272   -1.6413   -4.6987 C.3       1 <0>        -0.0966
     21 C18         3.1584   -1.0048   -5.6704 C.3       1 <0>        -0.0318
     22 C19         1.7065   -1.4875   -5.4064 C.3       1 <0>        -0.0238
     23 H4          1.0321   -0.9056   -6.0588 H         1 <0>         0.0780
     24 C20         1.5711   -2.9280   -5.5108 C.3       1 <0>        -0.1006
     25 C21         1.8657   -3.4564   -6.9395 C.3       1 <0>        -0.0773
     26 C22         3.3053   -2.9576   -7.2605 C.3       1 <0>        -0.1075
     27 C23         3.4454   -1.4984   -7.1275 C.3       1 <0>        -0.1167
     28 C24         1.7696   -4.9284   -7.0039 C.3       1 <0>        -0.1348
     29 C25         0.9371   -2.7915   -7.9059 C.3       1 <0>        -0.1452
     30 C26         3.2039    0.5288   -5.7027 C.3       1 <0>        -0.1025
     31 C27         4.6059    0.9890   -6.1072 C.3       1 <0>        -0.1198
     32 C28         4.6513    2.5180   -6.1394 C.3       1 <0>        -0.1188
     33 C29         6.0533    2.9782   -6.5438 C.3       1 <0>        -0.1185
     34 C30         6.0987    4.5072   -6.5761 C.3       1 <0>        -0.1199
     35 C31         7.5007    4.9673   -6.9805 C.3       1 <0>        -0.1188
     36 C32         7.5461    6.4963   -7.0127 C.3       1 <0>        -0.1191
     37 C33         8.9481    6.9565   -7.4172 C.3       1 <0>        -0.1205
     38 C34         8.9935    8.4855   -7.4494 C.3       1 <0>        -0.0934
     39 C35        10.3955    8.9457   -7.8538 C.3       1 <0>        -0.1838
     40 C36        10.4402   10.4517   -7.8856 C.2       1 <0>         0.4872
     41 O1          9.4432   11.0971   -7.6102 O.co2     1 <0>        -0.6999
     42 O2         11.4735   11.0247   -8.1866 O.co2     1 <0>        -0.7102
     43 C37         2.2955   -2.7663   -2.4725 C.3       1 <0>        -0.1487
     44 C38         2.4522    1.0185   -1.9411 C.3       1 <0>        -0.1609
     45 C39         1.5180   -1.2823    3.4640 C.3       1 <0>        -0.1473
     46 C40         1.0696    1.1157    3.1160 C.3       1 <0>        -0.1348
     47 O3         -1.1475   -0.1177    4.1071 O.3       1 <0>        -0.5538
     48 H5          1.2300    1.8584    0.0257 H         1 <0>         0.0654
     49 H6         -0.3263    1.8526   -0.8381 H         1 <0>         0.0552
     50 H7         -0.2961    1.8386    0.9416 H         1 <0>         0.0583
     51 H8         -1.8631   -0.0553   -0.4187 H         1 <0>         0.0601
     52 H9         -1.1780   -1.5413    0.3241 H         1 <0>         0.0581
     53 H10        -1.5992    1.0547    1.8645 H         1 <0>         0.0750
     54 H11        -2.6433   -0.3420    1.9577 H         1 <0>         0.0616
     55 H12         2.6250    0.9690    0.7491 H         1 <0>         0.0674
     56 H13         3.2723   -0.4071    1.6878 H         1 <0>         0.0519
     57 H14         4.0645   -0.5389   -0.7007 H         1 <0>         0.0722
     58 H15         2.9472   -1.9075   -0.2224 H         1 <0>         0.0710
     59 H16        -1.2704   -0.2275   -2.2614 H         1 <0>         0.0493
     60 H17        -0.1698    1.1575   -2.4133 H         1 <0>         0.0870
     61 H18        -0.3845   -0.3682   -4.6221 H         1 <0>         0.0879
     62 H19         4.1720   -0.0207   -3.3005 H         1 <0>         0.0730
     63 H20         4.5571   -1.5040   -2.5866 H         1 <0>         0.0496
     64 H21         5.1148   -1.4225   -4.9733 H         1 <0>         0.0561
     65 H22         4.0359   -2.7033   -4.6274 H         1 <0>         0.0664
     66 H23         2.2277   -3.5152   -4.8201 H         1 <0>         0.0734
     67 H24         0.5265   -3.2804   -5.2926 H         1 <0>         0.0497
     68 H25         3.9526   -3.5447   -6.6231 H         1 <0>         0.0605
     69 H26         3.4636   -3.2697   -8.2930 H         1 <0>         0.0493
     70 H27         2.8713   -0.9696   -7.9088 H         1 <0>         0.0710
     71 H28         4.5457   -1.2539   -7.3140 H         1 <0>         0.0517
     72 H29         0.7637   -5.2396   -6.7223 H         1 <0>         0.0545
     73 H30         1.9822   -5.2623   -8.0195 H         1 <0>         0.0547
     74 H31         2.4921   -5.3700   -6.3176 H         1 <0>         0.0539
     75 H32         1.0908   -1.7129   -7.8739 H         1 <0>         0.0621
     76 H33         1.1376   -3.1575   -8.9128 H         1 <0>         0.0496
     77 H34        -0.0937   -3.0198   -7.6349 H         1 <0>         0.0484
     78 H35         2.4773    0.8987   -6.4261 H         1 <0>         0.0589
     79 H36         2.9641    0.9204   -4.7142 H         1 <0>         0.0694
     80 H37         5.3325    0.6191   -5.3838 H         1 <0>         0.0601
     81 H38         4.8458    0.5975   -7.0957 H         1 <0>         0.0617
     82 H39         3.9247    2.8879   -6.8628 H         1 <0>         0.0583
     83 H40         4.4115    2.9095   -5.1508 H         1 <0>         0.0589
     84 H41         6.7799    2.6083   -5.8204 H         1 <0>         0.0583
     85 H42         6.2932    2.5866   -7.5324 H         1 <0>         0.0582
     86 H43         5.3721    4.8771   -7.2995 H         1 <0>         0.0593
     87 H44         5.8589    4.8987   -5.5875 H         1 <0>         0.0594
     88 H45         8.2273    4.5974   -6.2571 H         1 <0>         0.0579
     89 H46         7.7406    4.5758   -7.9691 H         1 <0>         0.0578
     90 H47         6.8195    6.8662   -7.7361 H         1 <0>         0.0591
     91 H48         7.3063    6.8879   -6.0241 H         1 <0>         0.0591
     92 H49         9.6747    6.5866   -6.6937 H         1 <0>         0.0534
     93 H50         9.1880    6.5650   -8.4057 H         1 <0>         0.0534
     94 H51         8.2669    8.8554   -8.1728 H         1 <0>         0.0569
     95 H52         8.7537    8.8770   -6.4608 H         1 <0>         0.0569
     96 H53        11.1221    8.5758   -7.1304 H         1 <0>         0.0539
     97 H54        10.6353    8.5541   -8.8424 H         1 <0>         0.0538
     98 H55         1.2506   -2.9860   -2.2532 H         1 <0>         0.0533
     99 H56         2.6332   -3.3934   -3.2976 H         1 <0>         0.0618
    100 H57         2.9023   -2.9691   -1.5900 H         1 <0>         0.0574
    101 H58         3.4597    1.0811   -2.3524 H         1 <0>         0.0600
    102 H59         1.7343    1.3667   -2.6837 H         1 <0>         0.0636
    103 H60         2.3842    1.6422   -1.0497 H         1 <0>         0.0627
    104 H61         1.2589   -2.3145    3.2282 H         1 <0>         0.0476
    105 H62         2.5836   -1.1275    3.2948 H         1 <0>         0.0573
    106 H63         1.2825   -1.0780    4.5084 H         1 <0>         0.0613
    107 H64         0.8844    1.1558    4.1894 H         1 <0>         0.0604
    108 H65         2.1192    1.3349    2.9199 H         1 <0>         0.0500
    109 H66         0.4442    1.8523    2.6116 H         1 <0>         0.0537
    110 H67        -2.0592   -0.3464    4.3345 H         1 <0>         0.3791
@<TRIPOS>BOND
     1    1    2 1
     2    1   48 1
     3    1   49 1
     4    1   50 1
     5    2    8 1
     6    2   13 1
     7    2    3 1
     8    3    4 1
     9    3   51 1
    10    3   52 1
    11    4    5 1
    12    4   53 1
    13    4   54 1
    14    5    6 1
    15    5    7 1
    16    5   47 1
    17    7    8 1
    18    7   45 1
    19    7   46 1
    20    8    9 1
    21    8   10 1
    22   10   11 1
    23   10   55 1
    24   10   56 1
    25   11   12 1
    26   11   57 1
    27   11   58 1
    28   12   18 1
    29   12   13 1
    30   12   44 1
    31   13   14 1
    32   13   15 1
    33   15   16 1
    34   15   59 1
    35   15   60 1
    36   16   17 2
    37   16   61 1
    38   17   22 1
    39   17   18 1
    40   18   19 1
    41   18   43 1
    42   19   20 1
    43   19   62 1
    44   19   63 1
    45   20   21 1
    46   20   64 1
    47   20   65 1
    48   21   27 1
    49   21   22 1
    50   21   30 1
    51   22   23 1
    52   22   24 1
    53   24   25 1
    54   24   66 1
    55   24   67 1
    56   25   26 1
    57   25   28 1
    58   25   29 1
    59   26   27 1
    60   26   68 1
    61   26   69 1
    62   27   70 1
    63   27   71 1
    64   28   72 1
    65   28   73 1
    66   28   74 1
    67   29   75 1
    68   29   76 1
    69   29   77 1
    70   30   31 1
    71   30   78 1
    72   30   79 1
    73   31   32 1
    74   31   80 1
    75   31   81 1
    76   32   33 1
    77   32   82 1
    78   32   83 1
    79   33   34 1
    80   33   84 1
    81   33   85 1
    82   34   35 1
    83   34   86 1
    84   34   87 1
    85   35   36 1
    86   35   88 1
    87   35   89 1
    88   36   37 1
    89   36   90 1
    90   36   91 1
    91   37   38 1
    92   37   92 1
    93   37   93 1
    94   38   39 1
    95   38   94 1
    96   38   95 1
    97   39   40 1
    98   39   96 1
    99   39   97 1
   100   40   41 2
   101   40   42 1
   102   43   98 1
   103   43   99 1
   104   43  100 1
   105   44  101 1
   106   44  102 1
   107   44  103 1
   108   45  104 1
   109   45  105 1
   110   45  106 1
   111   46  107 1
   112   46  108 1
   113   46  109 1
   114   47  110 1
@<TRIPOS>MOLECULE
CHEMBL243941
   48    50     0     0     0
SMALL
USER_CHARGES

@<TRIPOS>ATOM
      1 C1         -0.0129    1.3697   -0.1482 C.ar      1 <0>        -0.0749
      2 C2          1.1700    2.0807   -0.1560 C.ar      1 <0>        -0.1419
      3 C3          2.3874    1.4122   -0.0136 C.ar      1 <0>         0.0592
      4 C4          2.4028    0.0253    0.1367 C.ar      1 <0>        -0.1735
      5 C5          1.2092   -0.6796    0.1437 C.ar      1 <0>         0.2131
      6 C6          0.0022   -0.0043    0.0008 C.ar      1 <0>        -0.1965
      7 N1          1.2191   -2.0685    0.2935 N.pl3     1 <0>        -0.7511
      8 C7         -0.0424   -2.8134    0.3009 C.3       1 <0>         0.1602
      9 C8         -0.6563   -2.7421    1.7141 C.3       1 <0>        -0.1344
     10 C9         -2.1282   -3.0374    1.6112 C.3       1 <0>        -0.1175
     11 C10        -2.4497   -4.5239    1.8577 C.3       1 <0>        -0.1165
     12 C11        -1.4439   -5.4732    1.1787 C.3       1 <0>        -0.1204
     13 C12        -1.0739   -5.0235   -0.2087 C.3       1 <0>        -0.1099
     14 C13         0.2156   -4.1814   -0.1234 C.3       1 <0>        -0.1298
     15 C14         3.6555    2.1711   -0.0227 C.2       1 <0>        -0.1349
     16 C15         3.9828    3.3223    0.6734 C.2       1 <0>        -0.1126
     17 C16         5.2341    3.8592    0.5105 C.2       1 <0>         0.0995
     18 C17         6.1239    3.2171   -0.3534 C.2       1 <0>        -0.1407
     19 S1          5.1560    1.8314   -0.9275 S.3       1 <0>         0.1357
     20 C18         7.4479    3.5696   -0.6832 C.2       1 <0>         0.4870
     21 O1          8.0045    4.6516   -0.1396 O.co2     1 <0>        -0.6353
     22 O2          8.1434    2.8210   -1.5387 O.co2     1 <0>        -0.7113
     23 O3          5.5987    4.9868    1.1722 O.3       1 <0>        -0.2666
     24 C19         6.2022    4.8190    2.4566 C.3       1 <0>         0.0205
     25 C20         6.5369    6.1698    3.0347 C.2       1 <0>         0.5130
     26 O4          6.2823    7.1824    2.4052 O.co2     1 <0>        -0.6723
     27 O5          7.0624    6.2501    4.1320 O.co2     1 <0>        -0.7090
     28 Br1         2.7271    4.1398    1.8270 Br        1 <0>        -0.0348
     29 H1         -0.9538    1.8891   -0.2544 H         1 <0>         0.1202
     30 H2          1.1540    3.1543   -0.2727 H         1 <0>         0.1253
     31 H3          3.3414   -0.4974    0.2469 H         1 <0>         0.1227
     32 H4         -0.9267   -0.5552    0.0065 H         1 <0>         0.1169
     33 H5          2.0611   -2.5396    0.3927 H         1 <0>         0.3965
     34 H6         -0.7305   -2.3486   -0.4052 H         1 <0>         0.0731
     35 H7         -0.1789   -3.4803    2.3584 H         1 <0>         0.0654
     36 H8         -0.5112   -1.7435    2.1264 H         1 <0>         0.0723
     37 H9         -2.6611   -2.4347    2.3465 H         1 <0>         0.0601
     38 H10        -2.4743   -2.7623    0.6149 H         1 <0>         0.0604
     39 H11        -2.4410   -4.7120    2.9313 H         1 <0>         0.0570
     40 H12        -3.4476   -4.7360    1.4739 H         1 <0>         0.0564
     41 H13        -0.5403   -5.5226    1.7862 H         1 <0>         0.0616
     42 H14        -1.8828   -6.4693    1.1213 H         1 <0>         0.0562
     43 H15        -0.9016   -5.8938   -0.8420 H         1 <0>         0.0647
     44 H16        -1.8795   -4.4183   -0.6245 H         1 <0>         0.0676
     45 H17         0.6908   -4.1631   -1.1043 H         1 <0>         0.0673
     46 H18         0.8964   -4.6492    0.5878 H         1 <0>         0.0655
     47 H19         5.5083    4.3020    3.1193 H         1 <0>         0.0352
     48 H20         7.1144    4.2309    2.3554 H         1 <0>         0.0511
@<TRIPOS>BOND
     1    1    6 ar
     2    1    2 ar
     3    1   29 1
     4    2    3 ar
     5    2   30 1
     6    3    4 ar
     7    3   15 1
     8    4    5 ar
     9    4   31 1
    10    5    6 ar
    11    5    7 1
    12    6   32 1
    13    7    8 1
    14    7   33 1
    15    8   14 1
    16    8    9 1
    17    8   34 1
    18    9   10 1
    19    9   35 1
    20    9   36 1
    21   10   11 1
    22   10   37 1
    23   10   38 1
    24   11   12 1
    25   11   39 1
    26   11   40 1
    27   12   13 1
    28   12   41 1
    29   12   42 1
    30   13   14 1
    31   13   43 1
    32   13   44 1
    33   14   45 1
    34   14   46 1
    35   15   19 1
    36   15   16 2
    37   16   17 1
    38   16   28 1
    39   17   18 2
    40   17   23 1
    41   18   19 1
    42   18   20 1
    43   20   21 2
    44   20   22 1
    45   23   24 1
    46   24   25 1
    47   24   47 1
    48   24   48 1
    49   25   26 2
    50   25   27 1
@<TRIPOS>MOLECULE
CHEMBL394853
   43    45     0     0     0
SMALL
USER_CHARGES

@<TRIPOS>ATOM
      1 C1         -0.0129    1.3697   -0.1482 C.ar      1 <0>        -0.0740
      2 C2          1.1700    2.0807   -0.1560 C.ar      1 <0>        -0.1408
      3 C3          2.3874    1.4122   -0.0136 C.ar      1 <0>         0.0608
      4 C4          2.4028    0.0253    0.1367 C.ar      1 <0>        -0.1720
      5 C5          1.2092   -0.6796    0.1437 C.ar      1 <0>         0.2115
      6 C6          0.0022   -0.0043    0.0008 C.ar      1 <0>        -0.1984
      7 N1          1.2191   -2.0685    0.2935 N.pl3     1 <0>        -0.7469
      8 C7         -0.0424   -2.8134    0.3009 C.3       1 <0>         0.1558
      9 C8         -0.6238   -2.8225    1.7181 C.3       1 <0>        -0.1743
     10 C9         -1.8996   -3.6686    1.7324 C.3       1 <0>         0.0630
     11 O1         -1.5985   -4.9899    1.2788 O.3       1 <0>        -0.3844
     12 C10        -1.0958   -5.0476   -0.0576 C.3       1 <0>         0.0656
     13 C11         0.2123   -4.2569   -0.1439 C.3       1 <0>        -0.1644
     14 C12         3.6555    2.1711   -0.0227 C.2       1 <0>        -0.1372
     15 C13         3.9828    3.3223    0.6734 C.2       1 <0>        -0.1116
     16 C14         5.2341    3.8592    0.5105 C.2       1 <0>         0.0990
     17 C15         6.1239    3.2171   -0.3534 C.2       1 <0>        -0.1396
     18 S1          5.1560    1.8314   -0.9275 S.3       1 <0>         0.1367
     19 C16         7.4479    3.5696   -0.6832 C.2       1 <0>         0.4868
     20 O2          8.0045    4.6516   -0.1396 O.co2     1 <0>        -0.6348
     21 O3          8.1434    2.8210   -1.5387 O.co2     1 <0>        -0.7110
     22 O4          5.5987    4.9868    1.1722 O.3       1 <0>        -0.2665
     23 C17         6.2022    4.8190    2.4566 C.3       1 <0>         0.0204
     24 C18         6.5369    6.1698    3.0347 C.2       1 <0>         0.5129
     25 O5          6.2823    7.1824    2.4052 O.co2     1 <0>        -0.6722
     26 O6          7.0624    6.2501    4.1320 O.co2     1 <0>        -0.7087
     27 Br1         2.7271    4.1398    1.8270 Br        1 <0>        -0.0345
     28 H1         -0.9538    1.8891   -0.2544 H         1 <0>         0.1212
     29 H2          1.1540    3.1543   -0.2727 H         1 <0>         0.1263
     30 H3          3.3414   -0.4974    0.2469 H         1 <0>         0.1237
     31 H4         -0.9267   -0.5552    0.0065 H         1 <0>         0.1156
     32 H5          2.0611   -2.5396    0.3927 H         1 <0>         0.3990
     33 H6         -0.7489   -2.3409   -0.3814 H         1 <0>         0.0792
     34 H7          0.1043   -3.2496    2.4078 H         1 <0>         0.0750
     35 H8         -0.8597   -1.8025    2.0215 H         1 <0>         0.0804
     36 H9         -2.2944   -3.7139    2.7474 H         1 <0>         0.0951
     37 H10        -2.6418   -3.2183    1.0733 H         1 <0>         0.0511
     38 H11        -0.9115   -6.0862   -0.3321 H         1 <0>         0.0960
     39 H12        -1.8275   -4.6153   -0.7402 H         1 <0>         0.0522
     40 H13         0.5744   -4.2627   -1.1720 H         1 <0>         0.0805
     41 H14         0.9573   -4.7129    0.5082 H         1 <0>         0.0768
     42 H15         5.5083    4.3020    3.1193 H         1 <0>         0.0353
     43 H16         7.1144    4.2309    2.3554 H         1 <0>         0.0512
@<TRIPOS>BOND
     1    1    6 ar
     2    1    2 ar
     3    1   28 1
     4    2    3 ar
     5    2   29 1
     6    3    4 ar
     7    3   14 1
     8    4    5 ar
     9    4   30 1
    10    5    6 ar
    11    5    7 1
    12    6   31 1
    13    7    8 1
    14    7   32 1
    15    8   13 1
    16    8    9 1
    17    8   33 1
    18    9   10 1
    19    9   34 1
    20    9   35 1
    21   10   11 1
    22   10   36 1
    23   10   37 1
    24   11   12 1
    25   12   13 1
    26   12   38 1
    27   12   39 1
    28   13   40 1
    29   13   41 1
    30   14   18 1
    31   14   15 2
    32   15   16 1
    33   15   27 1
    34   16   17 2
    35   16   22 1
    36   17   18 1
    37   17   19 1
    38   19   20 2
    39   19   21 1
    40   22   23 1
    41   23   24 1
    42   23   42 1
    43   23   43 1
    44   24   25 2
    45   24   26 1
@<TRIPOS>MOLECULE
CHEMBL369943
   54    57     0     0     0
SMALL
USER_CHARGES

@<TRIPOS>ATOM
      1 C1         -0.6327    0.6598    0.3152 C.ar      1 <0>        -0.0625
      2 C2          0.3291    1.6254    0.0840 C.ar      1 <0>        -0.1324
      3 C3          1.6497    1.2572   -0.0929 C.ar      1 <0>        -0.0100
      4 C4          2.0086   -0.0766   -0.0382 C.ar      1 <0>        -0.6747
      5 C5          1.0470   -1.0422    0.1939 C.ar      1 <0>        -0.0250
      6 C6         -0.2738   -0.6741    0.3695 C.ar      1 <0>        -0.1436
      7 S1          3.6917   -0.5460   -0.2649 S.o2      1 <0>         2.6883
      8 O1          3.6768   -1.8330   -0.8671 O.2       1 <0>        -0.9592
      9 O2          4.3469    0.5658   -0.8596 O.2       1 <0>        -0.9546
     10 N1          4.3542   -0.7358    1.2409 N.pl3     1 <0>        -0.9816
     11 C7          4.1916   -2.0027    1.9584 C.3       1 <0>         0.1583
     12 C8          5.3944   -2.8768    1.7132 C.ar      1 <0>        -0.0910
     13 C9          5.4064   -3.7466    0.6378 C.ar      1 <0>        -0.0992
     14 C10         6.5055   -4.5495    0.4086 C.ar      1 <0>        -0.0883
     15 C11         7.6043   -4.4822    1.2625 C.ar      1 <0>        -0.0289
     16 C12         7.5871   -3.6040    2.3440 C.ar      1 <0>        -0.1003
     17 C13         6.4847   -2.8022    2.5611 C.ar      1 <0>        -0.0992
     18 C14         8.7888   -5.3434    1.0213 C.2       1 <0>         0.0611
     19 C15         9.8938   -5.3241    1.8294 C.2       1 <0>        -0.2708
     20 S2         10.8820   -6.4671    1.0963 S.3       1 <0>         0.3911
     21 N2          9.9240   -6.9041   -0.1314 N.2       1 <0>        -0.2486
     22 N3          8.8591   -6.1957    0.0110 N.2       1 <0>        -0.2390
     23 C16         5.1028    0.3632    1.8557 C.3       1 <0>         0.1618
     24 C17         4.1991    1.1258    2.7899 C.ar      1 <0>        -0.1313
     25 C18         3.5096    2.2336    2.3336 C.ar      1 <0>        -0.1182
     26 C19         2.6807    2.9332    3.1906 C.ar      1 <0>        -0.0734
     27 C20         2.5409    2.5246    4.5038 C.ar      1 <0>        -0.0908
     28 C21         3.2297    1.4163    4.9599 C.ar      1 <0>        -0.0863
     29 C22         4.0553    0.7142    4.1017 C.ar      1 <0>        -0.1099
     30 C23         1.6380    3.2878    5.4383 C.3       1 <0>        -0.2340
     31 F1          0.5536    3.8042    4.7209 F         1 <0>        -0.2122
     32 F2          1.1692    2.4292    6.4385 F         1 <0>        -0.2124
     33 P1          2.5698    4.6569    6.2004 P.3       1 <0>         2.1338
     34 O3          3.7232    4.0742    7.0862 O.2       1 <0>        -1.1337
     35 O4          3.1805    5.5620    5.0769 O.3       1 <0>        -1.1319
     36 O5          1.6064    5.5110    7.0931 O.3       1 <0>        -1.1396
     37 H1         -1.6637    0.9478    0.4579 H         1 <0>         0.1289
     38 H2          0.0486    2.6675    0.0412 H         1 <0>         0.1352
     39 H3          2.4010    2.0116   -0.2743 H         1 <0>         0.1416
     40 H4          1.3274   -2.0843    0.2364 H         1 <0>         0.1326
     41 H5         -1.0252   -1.4285    0.5504 H         1 <0>         0.1286
     42 H6          4.0970   -1.8060    3.0263 H         1 <0>         0.0994
     43 H7          3.2951   -2.5099    1.6016 H         1 <0>         0.0875
     44 H8          4.5541   -3.7980   -0.0235 H         1 <0>         0.1451
     45 H9          6.5136   -5.2288   -0.4310 H         1 <0>         0.1321
     46 H10         8.4361   -3.5481    3.0092 H         1 <0>         0.1259
     47 H11         6.4718   -2.1184    3.3969 H         1 <0>         0.1340
     48 H12        10.0816   -4.7277    2.7099 H         1 <0>         0.2103
     49 H13         5.9467   -0.0403    2.4152 H         1 <0>         0.0935
     50 H14         5.4695    1.0329    1.0777 H         1 <0>         0.1036
     51 H15         3.6188    2.5528    1.3077 H         1 <0>         0.1182
     52 H16         2.1426    3.7991    2.8343 H         1 <0>         0.1281
     53 H17         3.1208    1.0973    5.9859 H         1 <0>         0.1268
     54 H18         4.5906   -0.1539    4.4570 H         1 <0>         0.1171
@<TRIPOS>BOND
     1    1    6 ar
     2    1    2 ar
     3    1   37 1
     4    2    3 ar
     5    2   38 1
     6    3    4 ar
     7    3   39 1
     8    4    5 ar
     9    4    7 1
    10    5    6 ar
    11    5   40 1
    12    6   41 1
    13    7    8 2
    14    7    9 2
    15    7   10 1
    16   10   11 1
    17   10   23 1
    18   11   12 1
    19   11   42 1
    20   11   43 1
    21   12   17 ar
    22   12   13 ar
    23   13   14 ar
    24   13   44 1
    25   14   15 ar
    26   14   45 1
    27   15   16 ar
    28   15   18 1
    29   16   17 ar
    30   16   46 1
    31   17   47 1
    32   18   22 1
    33   18   19 2
    34   19   20 1
    35   19   48 1
    36   20   21 1
    37   21   22 2
    38   23   24 1
    39   23   49 1
    40   23   50 1
    41   24   29 ar
    42   24   25 ar
    43   25   26 ar
    44   25   51 1
    45   26   27 ar
    46   26   52 1
    47   27   28 ar
    48   27   30 1
    49   28   29 ar
    50   28   53 1
    51   29   54 1
    52   30   31 1
    53   30   32 1
    54   30   33 1
    55   33   34 2
    56   33   35 1
    57   33   36 1
@<TRIPOS>MOLECULE
CHEMBL394852
   42    44     0     0     0
SMALL
USER_CHARGES

@<TRIPOS>ATOM
      1 C1         -0.0129    1.3697   -0.1482 C.ar      1 <0>        -0.0744
      2 C2          1.1700    2.0807   -0.1560 C.ar      1 <0>        -0.1419
      3 C3          2.3874    1.4122   -0.0136 C.ar      1 <0>         0.0595
      4 C4          2.4028    0.0253    0.1367 C.ar      1 <0>        -0.1733
      5 C5          1.2092   -0.6796    0.1437 C.ar      1 <0>         0.2117
      6 C6          0.0022   -0.0043    0.0008 C.ar      1 <0>        -0.1971
      7 N1          1.2191   -2.0685    0.2935 N.pl3     1 <0>        -0.7460
      8 C7         -0.0424   -2.8134    0.3009 C.3       1 <0>         0.1506
      9 C8         -0.6079   -2.8808    1.7346 C.3       1 <0>        -0.1416
     10 C9         -1.2292   -4.2963    1.8317 C.3       1 <0>        -0.1245
     11 C10        -0.2255   -5.1656    1.0341 C.3       1 <0>        -0.1239
     12 C11         0.2007   -4.2661   -0.1444 C.3       1 <0>        -0.1319
     13 C12         3.6555    2.1711   -0.0227 C.2       1 <0>        -0.1352
     14 C13         3.9828    3.3223    0.6734 C.2       1 <0>        -0.1126
     15 C14         5.2341    3.8592    0.5105 C.2       1 <0>         0.0995
     16 C15         6.1239    3.2171   -0.3534 C.2       1 <0>        -0.1406
     17 S1          5.1560    1.8314   -0.9275 S.3       1 <0>         0.1360
     18 C16         7.4479    3.5696   -0.6832 C.2       1 <0>         0.4871
     19 O1          8.0045    4.6516   -0.1396 O.co2     1 <0>        -0.6353
     20 O2          8.1434    2.8210   -1.5387 O.co2     1 <0>        -0.7113
     21 O3          5.5987    4.9868    1.1722 O.3       1 <0>        -0.2666
     22 C17         6.2022    4.8190    2.4566 C.3       1 <0>         0.0205
     23 C18         6.5369    6.1698    3.0347 C.2       1 <0>         0.5129
     24 O4          6.2823    7.1824    2.4052 O.co2     1 <0>        -0.6722
     25 O5          7.0624    6.2501    4.1320 O.co2     1 <0>        -0.7089
     26 Br1         2.7271    4.1398    1.8270 Br        1 <0>        -0.0347
     27 H1         -0.9538    1.8891   -0.2544 H         1 <0>         0.1206
     28 H2          1.1540    3.1543   -0.2727 H         1 <0>         0.1256
     29 H3          3.3414   -0.4974    0.2469 H         1 <0>         0.1230
     30 H4         -0.9267   -0.5552    0.0065 H         1 <0>         0.1162
     31 H5          2.0611   -2.5396    0.3927 H         1 <0>         0.3976
     32 H6         -0.7622   -2.3348   -0.3630 H         1 <0>         0.0806
     33 H7          0.1918   -2.7642    2.4660 H         1 <0>         0.0733
     34 H8         -1.3727   -2.1178    1.8793 H         1 <0>         0.0672
     35 H9         -1.2839   -4.6238    2.8700 H         1 <0>         0.0653
     36 H10        -2.2145   -4.3185    1.3662 H         1 <0>         0.0660
     37 H11         0.6359   -5.4180    1.6524 H         1 <0>         0.0659
     38 H12        -0.7113   -6.0699    0.6676 H         1 <0>         0.0641
     39 H13        -0.4018   -4.4927   -1.0240 H         1 <0>         0.0709
     40 H14         1.2572   -4.4168   -0.3661 H         1 <0>         0.0713
     41 H15         5.5083    4.3020    3.1193 H         1 <0>         0.0353
     42 H16         7.1144    4.2309    2.3554 H         1 <0>         0.0511
@<TRIPOS>BOND
     1    1    6 ar
     2    1    2 ar
     3    1   27 1
     4    2    3 ar
     5    2   28 1
     6    3    4 ar
     7    3   13 1
     8    4    5 ar
     9    4   29 1
    10    5    6 ar
    11    5    7 1
    12    6   30 1
    13    7    8 1
    14    7   31 1
    15    8   12 1
    16    8    9 1
    17    8   32 1
    18    9   10 1
    19    9   33 1
    20    9   34 1
    21   10   11 1
    22   10   35 1
    23   10   36 1
    24   11   12 1
    25   11   37 1
    26   11   38 1
    27   12   39 1
    28   12   40 1
    29   13   17 1
    30   13   14 2
    31   14   15 1
    32   14   26 1
    33   15   16 2
    34   15   21 1
    35   16   17 1
    36   16   18 1
    37   18   19 2
    38   18   20 1
    39   21   22 1
    40   22   23 1
    41   22   41 1
    42   22   42 1
    43   23   24 2
    44   23   25 1
@<TRIPOS>MOLECULE
CHEMBL411295
   39    41     0     0     0
SMALL
USER_CHARGES

@<TRIPOS>ATOM
      1 C1         -0.0085    1.4163    0.4986 C.ar      1 <0>        -0.1494
      2 C2          1.1714    2.1193    0.3566 C.ar      1 <0>        -0.1145
      3 C3          2.3993    1.4553    0.4410 C.ar      1 <0>        -0.0874
      4 C4          2.4299    0.0794    0.6692 C.ar      1 <0>        -0.0544
      5 C5          1.2342   -0.6232    0.8115 C.ar      1 <0>        -0.1397
      6 C6          0.0141    0.0547    0.7247 C.ar      1 <0>        -0.0821
      7 C7          1.2559   -2.0789    1.0527 C.2       1 <0>         0.5203
      8 O1          2.3237   -2.6703    1.1280 O.co2     1 <0>        -0.6767
      9 O2          0.2063   -2.6938    1.1773 O.co2     1 <0>        -0.6992
     10 C8          3.6577    2.2070    0.2887 C.2       1 <0>        -0.0318
     11 C9          3.6262    3.5321    0.0685 C.2       1 <0>        -0.1545
     12 C10         4.8832    4.2830   -0.0836 C.ar      1 <0>         0.1821
     13 C11         4.8330    5.6717   -0.3082 C.ar      1 <0>        -0.1633
     14 C12         5.9893    6.3766   -0.4503 C.ar      1 <0>        -0.0655
     15 C13         7.2127    5.6803   -0.3663 C.ar      1 <0>        -0.1028
     16 C14         8.4393    6.3474   -0.5035 C.ar      1 <0>        -0.1039
     17 C15         9.6033    5.6436   -0.4164 C.ar      1 <0>        -0.0462
     18 C16         9.5918    4.2676   -0.1926 C.ar      1 <0>        -0.1094
     19 C17         8.4204    3.5890   -0.0553 C.ar      1 <0>        -0.0174
     20 C18         7.1983    4.2811   -0.1386 C.ar      1 <0>         0.1460
     21 N1          6.0354    3.6394   -0.0010 N.ar      1 <0>        -0.4398
     22 C19        10.8971    3.5200   -0.1017 C.3       1 <0>        -0.2311
     23 F1         11.6568    3.7668   -1.2503 F         1 <0>        -0.2039
     24 F2         11.6038    3.9508    1.0262 F         1 <0>        -0.2054
     25 P1         10.5655    1.7326    0.0350 P.3       1 <0>         2.1257
     26 O3          9.8161    1.4419    1.3797 O.2       1 <0>        -1.1262
     27 O4          9.6747    1.2732   -1.1692 O.3       1 <0>        -1.1260
     28 O5         11.9206    0.9468    0.0118 O.3       1 <0>        -1.1365
     29 Br1        11.2552    6.5452   -0.6023 Br        1 <0>        -0.0580
     30 H1         -0.9537    1.9351    0.4369 H         1 <0>         0.1104
     31 H2          1.1459    3.1844    0.1796 H         1 <0>         0.1155
     32 H3          3.3750   -0.4389    0.7350 H         1 <0>         0.1375
     33 H4         -0.9129   -0.4884    0.8351 H         1 <0>         0.1217
     34 H5          4.6052    1.6928    0.3541 H         1 <0>         0.1435
     35 H6          2.6787    4.0463    0.0031 H         1 <0>         0.1261
     36 H7          3.8801    6.1765   -0.3679 H         1 <0>         0.1321
     37 H8          5.9699    7.4425   -0.6235 H         1 <0>         0.1320
     38 H9          8.4611    7.4131   -0.6775 H         1 <0>         0.1313
     39 H10         8.4287    2.5230    0.1178 H         1 <0>         0.2006
@<TRIPOS>BOND
     1    1    6 ar
     2    1    2 ar
     3    1   30 1
     4    2    3 ar
     5    2   31 1
     6    3    4 ar
     7    3   10 1
     8    4    5 ar
     9    4   32 1
    10    5    6 ar
    11    5    7 1
    12    6   33 1
    13    7    8 2
    14    7    9 1
    15   10   11 2
    16   10   34 1
    17   11   12 1
    18   11   35 1
    19   12   21 ar
    20   12   13 ar
    21   13   14 ar
    22   13   36 1
    23   14   15 ar
    24   14   37 1
    25   15   20 ar
    26   15   16 ar
    27   16   17 ar
    28   16   38 1
    29   17   18 ar
    30   17   29 1
    31   18   19 ar
    32   18   22 1
    33   19   20 ar
    34   19   39 1
    35   20   21 ar
    36   22   23 1
    37   22   24 1
    38   22   25 1
    39   25   26 2
    40   25   27 1
    41   25   28 1
@<TRIPOS>MOLECULE
CHEMBL61186
   47    50     0     0     0
SMALL
USER_CHARGES

@<TRIPOS>ATOM
      1 C1         -0.0187    1.5258    0.0104 C.3       1 <0>        -0.1527
      2 C2          0.0021   -0.0041    0.0020 C.3       1 <0>         0.0598
      3 O1          0.6932   -0.4774    1.1597 O.3       1 <0>        -0.3524
      4 C3          0.8006   -1.8076    1.3039 C.2       1 <0>         0.4664
      5 O2          0.3237   -2.5457    0.4746 O.2       1 <0>        -0.5030
      6 C4          1.5162   -2.3806    2.5000 C.3       1 <0>        -0.1071
      7 C5          1.4962   -3.9085    2.4227 C.3       1 <0>        -0.0659
      8 C6          2.2117   -4.4814    3.6188 C.2       1 <0>        -0.1803
      9 C7          1.4831   -4.8552    4.7199 C.2       1 <0>         0.2378
     10 C8          2.1339   -5.4210    5.9148 C.ar      1 <0>        -0.0466
     11 C9          1.3782   -5.7950    7.0223 C.ar      1 <0>        -0.0844
     12 C10         2.0050   -6.3258    8.1380 C.ar      1 <0>        -0.0849
     13 C11         3.3775   -6.4880    8.1630 C.ar      1 <0>        -0.1041
     14 C12         4.1464   -6.1215    7.0700 C.ar      1 <0>        -0.0543
     15 C13         3.5320   -5.5878    5.9427 C.ar      1 <0>        -0.1392
     16 C14         4.3260   -5.1880    4.7622 C.2       1 <0>         0.3610
     17 O3          5.5323   -5.3180    4.7514 O.2       1 <0>        -0.3770
     18 C15         3.6053   -4.6254    3.5786 C.2       1 <0>         0.3619
     19 O4          4.2263   -4.2903    2.5870 O.2       1 <0>        -0.3771
     20 N1          0.1129   -4.6976    4.7081 N.pl3     1 <0>        -0.4585
     21 C16        -0.7674   -5.4981    4.0258 C.2       1 <0>         0.0539
     22 C17        -2.0233   -5.0717    4.2269 C.2       1 <0>        -0.1795
     23 C18        -1.9455   -3.9027    5.1097 C.ar      1 <0>        -0.1002
     24 C19        -0.5797   -3.7133    5.3866 C.ar      1 <0>         0.1027
     25 C20        -0.1886   -2.6682    6.2139 C.ar      1 <0>        -0.1286
     26 C21        -1.1384   -1.8291    6.7581 C.ar      1 <0>        -0.0918
     27 C22        -2.4857   -2.0173    6.4880 C.ar      1 <0>        -0.1395
     28 C23        -2.8942   -3.0433    5.6637 C.ar      1 <0>        -0.0691
     29 H1          1.0039    1.9031    0.0027 H         1 <0>         0.0671
     30 H2         -0.5459    1.8868   -0.8726 H         1 <0>         0.0808
     31 H3         -0.5289    1.8773    0.9072 H         1 <0>         0.0671
     32 H4         -1.0205   -0.3814    0.0098 H         1 <0>         0.0682
     33 H5          0.5123   -0.3556   -0.8948 H         1 <0>         0.0683
     34 H6          2.5484   -2.0306    2.5079 H         1 <0>         0.1094
     35 H7          1.0156   -2.0564    3.4125 H         1 <0>         0.1060
     36 H8          0.4639   -4.2584    2.4148 H         1 <0>         0.0951
     37 H9          1.9967   -4.2327    1.5103 H         1 <0>         0.0982
     38 H10         0.3053   -5.6713    7.0120 H         1 <0>         0.1377
     39 H11         1.4161   -6.6151    8.9959 H         1 <0>         0.1392
     40 H12         3.8533   -6.9024    9.0395 H         1 <0>         0.1412
     41 H13         5.2185   -6.2496    7.0938 H         1 <0>         0.1460
     42 H14        -0.4905   -6.3457    3.4165 H         1 <0>         0.1737
     43 H15        -2.9223   -5.5069    3.8160 H         1 <0>         0.1551
     44 H16         0.8579   -2.5130    6.4310 H         1 <0>         0.1190
     45 H17        -0.8300   -1.0180    7.4011 H         1 <0>         0.1282
     46 H18        -3.2183   -1.3524    6.9212 H         1 <0>         0.1261
     47 H19        -3.9442   -3.1879    5.4566 H         1 <0>         0.1263
@<TRIPOS>BOND
     1    1    2 1
     2    1   29 1
     3    1   30 1
     4    1   31 1
     5    2    3 1
     6    2   32 1
     7    2   33 1
     8    3    4 1
     9    4    5 2
    10    4    6 1
    11    6    7 1
    12    6   34 1
    13    6   35 1
    14    7    8 1
    15    7   36 1
    16    7   37 1
    17    8   18 1
    18    8    9 2
    19    9   10 1
    20    9   20 1
    21   10   15 ar
    22   10   11 ar
    23   11   12 ar
    24   11   38 1
    25   12   13 ar
    26   12   39 1
    27   13   14 ar
    28   13   40 1
    29   14   15 ar
    30   14   41 1
    31   15   16 1
    32   16   17 2
    33   16   18 1
    34   18   19 2
    35   20   24 1
    36   20   21 1
    37   21   22 2
    38   21   42 1
    39   22   23 1
    40   22   43 1
    41   23   28 ar
    42   23   24 ar
    43   24   25 ar
    44   25   26 ar
    45   25   44 1
    46   26   27 ar
    47   26   45 1
    48   27   28 ar
    49   27   46 1
    50   28   47 1
@<TRIPOS>MOLECULE
CHEMBL261362
   37    39     0     0     0
SMALL
USER_CHARGES

@<TRIPOS>ATOM
      1 C1          0.0671    1.2582   -0.1873 C.ar      1 <0>        -0.0715
      2 C2          1.2523    1.9616   -0.0943 C.ar      1 <0>        -0.1489
      3 C3          2.3966    1.4786   -0.7159 C.ar      1 <0>         0.1835
      4 C4          2.3460    0.2886   -1.4302 C.ar      1 <0>        -0.1607
      5 C5          1.1567   -0.4116   -1.5201 C.ar      1 <0>         0.1107
      6 C6          0.0178    0.0739   -0.8984 C.ar      1 <0>        -0.1755
      7 F1          1.1055   -1.5692   -2.2148 F         1 <0>        -0.1419
      8 N1          3.5970    2.1893   -0.6233 N.am      1 <0>        -0.6546
      9 C7          4.7685    1.5269   -0.5502 C.2       1 <0>         0.5865
     10 O1          4.7891    0.3161   -0.6515 O.2       1 <0>        -0.5210
     11 C8          6.0315    2.2752   -0.3462 C.ar      1 <0>         0.0872
     12 C9          7.2426    1.5700   -0.2782 C.ar      1 <0>        -0.1250
     13 C10         8.4126    2.2473   -0.0907 C.ar      1 <0>        -0.0635
     14 C11         8.3592    3.6489    0.0291 C.ar      1 <0>        -0.0708
     15 C12         9.5238    4.4085    0.2228 C.ar      1 <0>        -0.1112
     16 C13         9.4340    5.7633    0.3341 C.ar      1 <0>        -0.0295
     17 C14         8.1989    6.4079    0.2582 C.ar      1 <0>        -0.1085
     18 C15         7.0504    5.7045    0.0712 C.ar      1 <0>        -0.0091
     19 C16         7.1015    4.3021   -0.0486 C.ar      1 <0>         0.1314
     20 N2          5.9917    3.5891   -0.2382 N.ar      1 <0>        -0.4057
     21 C17         8.1367    7.9082    0.3860 C.3       1 <0>        -0.2314
     22 F2          8.7632    8.3014    1.5735 F         1 <0>        -0.2003
     23 F3          8.7896    8.4964   -0.7026 F         1 <0>        -0.2019
     24 P1          6.3945    8.4442    0.4117 P.3       1 <0>         2.1266
     25 O2          5.7293    8.1244   -0.9702 O.2       1 <0>        -1.1279
     26 O3          5.6305    7.6826    1.5478 O.3       1 <0>        -1.1271
     27 O4          6.3264    9.9863    0.6796 O.3       1 <0>        -1.1329
     28 Br1        11.0043    6.7839    0.5956 Br        1 <0>        -0.0410
     29 H1         -0.8214    1.6318    0.3000 H         1 <0>         0.1373
     30 H2          1.2891    2.8869    0.4614 H         1 <0>         0.1420
     31 H3          3.2341   -0.0893   -1.9149 H         1 <0>         0.1514
     32 H4         -0.9101   -0.4742   -0.9692 H         1 <0>         0.1320
     33 H5          3.5868    3.1592   -0.6116 H         1 <0>         0.4355
     34 H6          7.2489    0.4942   -0.3735 H         1 <0>         0.1477
     35 H7          9.3545    1.7218   -0.0354 H         1 <0>         0.1448
     36 H8         10.4858    3.9214    0.2837 H         1 <0>         0.1401
     37 H9          6.1026    6.2191    0.0147 H         1 <0>         0.2031
@<TRIPOS>BOND
     1    1    6 ar
     2    1    2 ar
     3    1   29 1
     4    2    3 ar
     5    2   30 1
     6    3    4 ar
     7    3    8 1
     8    4    5 ar
     9    4   31 1
    10    5    6 ar
    11    5    7 1
    12    6   32 1
    13    8    9 am
    14    8   33 1
    15    9   10 2
    16    9   11 1
    17   11   20 ar
    18   11   12 ar
    19   12   13 ar
    20   12   34 1
    21   13   14 ar
    22   13   35 1
    23   14   19 ar
    24   14   15 ar
    25   15   16 ar
    26   15   36 1
    27   16   17 ar
    28   16   28 1
    29   17   18 ar
    30   17   21 1
    31   18   19 ar
    32   18   37 1
    33   19   20 ar
    34   21   22 1
    35   21   23 1
    36   21   24 1
    37   24   25 2
    38   24   26 1
    39   24   27 1
@<TRIPOS>MOLECULE
CHEMBL570779
   42    44     0     0     0
SMALL
USER_CHARGES

@<TRIPOS>ATOM
      1 C1          0.0705    4.5139   -0.3884 C.2       1 <0>        -0.1534
      2 C2          1.4524    4.5472   -0.3850 C.2       1 <0>        -0.1638
      3 C3          2.1372    3.3957   -0.1793 C.2       1 <0>        -0.1312
      4 S1          0.8165    2.2109    0.0188 S.3       1 <0>         0.0284
      5 C4         -0.5589    3.3306   -0.1859 C.2       1 <0>        -0.1794
      6 C5          3.6269    3.1732   -0.1310 C.3       1 <0>        -0.0377
      7 C6          4.1220    3.3463    1.3063 C.3       1 <0>        -0.1004
      8 C7          5.6345    3.1203    1.3554 C.3       1 <0>        -0.1392
      9 C8          6.1221    3.2908    2.7711 C.2       1 <0>         0.5102
     10 O1          5.3373    3.5659    3.6539 O.2       1 <0>        -0.5197
     11 N1          7.4305    3.1376    3.0562 N.am      1 <0>        -0.6722
     12 C9          7.8988    3.3907    4.3502 C.ar      1 <0>         0.1342
     13 C10         7.1081    3.0851    5.4505 C.ar      1 <0>        -0.1265
     14 C11         7.5755    3.3396    6.7229 C.ar      1 <0>        -0.0976
     15 C12         8.8313    3.8977    6.9108 C.ar      1 <0>        -0.1252
     16 C13         9.6204    4.1986    5.8197 C.ar      1 <0>        -0.0422
     17 C14         9.1570    3.9428    4.5400 C.ar      1 <0>        -0.1426
     18 C15        10.9954    4.7935    5.9865 C.3       1 <0>        -0.0926
     19 C16        11.1440    5.3663    7.3971 C.3       1 <0>         0.0224
     20 H1         10.5278    6.2600    7.4962 H         1 <0>         0.0543
     21 O2         10.7110    4.3766    8.3371 O.3       1 <0>        -0.3442
     22 C17         9.2998    4.1645    8.3179 C.3       1 <0>         0.0923
     23 C18        12.5875    5.7158    7.6523 C.2       1 <0>         0.5064
     24 O3         13.1251    6.5974    7.0040 O.co2     1 <0>        -0.6916
     25 O4         13.2178    5.1169    8.5070 O.co2     1 <0>        -0.6725
     26 H2         -0.4991    5.4178   -0.5455 H         1 <0>         0.1323
     27 H3          1.9786    5.4768   -0.5442 H         1 <0>         0.1325
     28 H4         -1.6177    3.1199   -0.1559 H         1 <0>         0.1838
     29 H5          3.8549    2.1643   -0.4748 H         1 <0>         0.0811
     30 H6          4.1237    3.8978   -0.7761 H         1 <0>         0.0888
     31 H7          3.8940    4.3552    1.6501 H         1 <0>         0.0765
     32 H8          3.6253    2.6216    1.9515 H         1 <0>         0.0752
     33 H9          5.8625    2.1114    1.0116 H         1 <0>         0.0980
     34 H10         6.1312    3.8450    0.7103 H         1 <0>         0.0991
     35 H11         8.0474    2.8517    2.3644 H         1 <0>         0.4096
     36 H12         6.1299    2.6496    5.3100 H         1 <0>         0.1352
     37 H13         6.9597    3.1032    7.5781 H         1 <0>         0.1246
     38 H14         9.7757    4.1781    3.6866 H         1 <0>         0.1249
     39 H15        11.7467    4.0197    5.8287 H         1 <0>         0.0830
     40 H16        11.1371    5.5894    5.2554 H         1 <0>         0.0858
     41 H17         8.7963    5.0508    8.7041 H         1 <0>         0.0559
     42 H18         9.0546    3.3096    8.9481 H         1 <0>         0.0973
@<TRIPOS>BOND
     1    1    5 2
     2    1    2 1
     3    1   26 1
     4    2    3 2
     5    2   27 1
     6    3    4 1
     7    3    6 1
     8    4    5 1
     9    5   28 1
    10    6    7 1
    11    6   29 1
    12    6   30 1
    13    7    8 1
    14    7   31 1
    15    7   32 1
    16    8    9 1
    17    8   33 1
    18    8   34 1
    19    9   10 2
    20    9   11 am
    21   11   12 1
    22   11   35 1
    23   12   17 ar
    24   12   13 ar
    25   13   14 ar
    26   13   36 1
    27   14   15 ar
    28   14   37 1
    29   15   22 1
    30   15   16 ar
    31   16   17 ar
    32   16   18 1
    33   17   38 1
    34   18   19 1
    35   18   39 1
    36   18   40 1
    37   19   20 1
    38   19   21 1
    39   19   23 1
    40   21   22 1
    41   22   41 1
    42   22   42 1
    43   23   24 2
    44   23   25 1
@<TRIPOS>MOLECULE
CHEMBL396555
   61    64     0     0     0
SMALL
USER_CHARGES

@<TRIPOS>ATOM
      1 C1         -0.1821    1.3544    0.2195 C.ar      1 <0>        -0.1124
      2 C2          0.9955    2.0784    0.2085 C.ar      1 <0>        -0.1214
      3 C3          2.2106    1.4210    0.1624 C.ar      1 <0>        -0.0991
      4 C4          2.2483    0.0396    0.1277 C.ar      1 <0>        -0.1096
      5 C5          1.0708   -0.6844    0.1396 C.ar      1 <0>        -0.1005
      6 C6         -0.1444   -0.0270    0.1843 C.ar      1 <0>        -0.1231
      7 C7          3.5730   -0.6771    0.0764 C.3       1 <0>         0.1798
      8 N1          4.0374   -0.9430    1.4402 N.am      1 <0>        -0.7447
      9 C8          5.2085   -1.5791    1.6412 C.2       1 <0>         0.7091
     10 O1          5.8319   -2.0186    0.6944 O.2       1 <0>        -0.5896
     11 N2          5.6885   -1.7280    2.8918 N.am      1 <0>        -0.6279
     12 C9          4.8920   -1.3111    4.0539 C.3       1 <0>         0.1174
     13 C10         5.7331   -0.3620    4.9133 C.3       1 <0>        -0.1437
     14 C11         7.0573   -1.0415    5.2699 C.3       1 <0>         0.1587
     15 C12         7.8352   -1.3506    3.9887 C.3       1 <0>        -0.1519
     16 C13         7.0156   -2.3160    3.1192 C.3       1 <0>         0.1320
     17 N3          7.8503   -0.1494    6.1193 N.pl3     1 <0>        -0.7469
     18 C14         8.8083   -0.6799    6.9867 C.ar      1 <0>         0.2138
     19 C15         9.0132   -2.0542    7.0397 C.ar      1 <0>        -0.1978
     20 C16         9.9594   -2.5840    7.8965 C.ar      1 <0>        -0.0754
     21 C17        10.7078   -1.7526    8.7049 C.ar      1 <0>        -0.1532
     22 C18        10.5099   -0.3713    8.6593 C.ar      1 <0>         0.0596
     23 C19         9.5588    0.1641    7.7904 C.ar      1 <0>        -0.1592
     24 C20        11.3092    0.5212    9.5247 C.2       1 <0>        -0.1371
     25 C21        10.8779    1.5533   10.3406 C.2       1 <0>        -0.1124
     26 C22        11.8075    2.2560   11.0636 C.2       1 <0>         0.0985
     27 C23        13.1515    1.8965   10.9427 C.2       1 <0>        -0.1403
     28 S1         13.0743    0.5366    9.7889 S.3       1 <0>         0.1407
     29 C24        14.2789    2.4595   11.5737 C.2       1 <0>         0.4867
     30 O2         14.1299    3.4799   12.4177 O.co2     1 <0>        -0.6353
     31 O3         15.4941    1.9714   11.3263 O.co2     1 <0>        -0.7106
     32 O4         11.4307    3.2759   11.8760 O.3       1 <0>        -0.2668
     33 C25        11.1181    2.9448   13.2305 C.3       1 <0>         0.0205
     34 C26        10.7239    4.1943   13.9750 C.2       1 <0>         0.5130
     35 O5         10.7118    5.2689   13.3990 O.co2     1 <0>        -0.6727
     36 O6         10.4170    4.1308   15.1533 O.co2     1 <0>        -0.7087
     37 Br1         9.0407    1.9864   10.4556 Br        1 <0>        -0.0368
     38 H1         -1.1313    1.8679    0.2600 H         1 <0>         0.1228
     39 H2          0.9661    3.1576    0.2356 H         1 <0>         0.1247
     40 H3          3.1306    1.9867    0.1531 H         1 <0>         0.1250
     41 H4          1.1001   -1.7637    0.1122 H         1 <0>         0.1239
     42 H5         -1.0644   -0.5927    0.1932 H         1 <0>         0.1234
     43 H6          3.4556   -1.6199   -0.4577 H         1 <0>         0.0751
     44 H7          4.3030   -0.0547   -0.4411 H         1 <0>         0.0741
     45 H8          3.5021   -0.6612    2.1984 H         1 <0>         0.3967
     46 H9          3.9926   -0.7969    3.7150 H         1 <0>         0.0781
     47 H10         4.6155   -2.1871    4.6406 H         1 <0>         0.0748
     48 H11         5.9324    0.5533    4.3559 H         1 <0>         0.0734
     49 H12         5.1901   -0.1211    5.8272 H         1 <0>         0.0850
     50 H13         6.8566   -1.9693    5.8057 H         1 <0>         0.0809
     51 H14         8.0147   -0.4260    3.4401 H         1 <0>         0.0701
     52 H15         8.7884   -1.8132    4.2446 H         1 <0>         0.0838
     53 H16         6.9087   -3.2723    3.6312 H         1 <0>         0.0678
     54 H17         7.5178   -2.4651    2.1633 H         1 <0>         0.0955
     55 H18         7.7102    0.8096    6.0794 H         1 <0>         0.3992
     56 H19         8.4306   -2.7098    6.4095 H         1 <0>         0.1168
     57 H20        10.1135   -3.6523    7.9337 H         1 <0>         0.1205
     58 H21        11.4462   -2.1705    9.3731 H         1 <0>         0.1228
     59 H22         9.4044    1.2321    7.7475 H         1 <0>         0.1263
     60 H23        10.2914    2.2346   13.2494 H         1 <0>         0.0352
     61 H24        11.9913    2.4986   13.7063 H         1 <0>         0.0514
@<TRIPOS>BOND
     1    1    6 ar
     2    1    2 ar
     3    1   38 1
     4    2    3 ar
     5    2   39 1
     6    3    4 ar
     7    3   40 1
     8    4    5 ar
     9    4    7 1
    10    5    6 ar
    11    5   41 1
    12    6   42 1
    13    7    8 1
    14    7   43 1
    15    7   44 1
    16    8    9 am
    17    8   45 1
    18    9   10 2
    19    9   11 am
    20   11   16 1
    21   11   12 1
    22   12   13 1
    23   12   46 1
    24   12   47 1
    25   13   14 1
    26   13   48 1
    27   13   49 1
    28   14   15 1
    29   14   17 1
    30   14   50 1
    31   15   16 1
    32   15   51 1
    33   15   52 1
    34   16   53 1
    35   16   54 1
    36   17   18 1
    37   17   55 1
    38   18   23 ar
    39   18   19 ar
    40   19   20 ar
    41   19   56 1
    42   20   21 ar
    43   20   57 1
    44   21   22 ar
    45   21   58 1
    46   22   23 ar
    47   22   24 1
    48   23   59 1
    49   24   28 1
    50   24   25 2
    51   25   26 1
    52   25   37 1
    53   26   27 2
    54   26   32 1
    55   27   28 1
    56   27   29 1
    57   29   30 2
    58   29   31 1
    59   32   33 1
    60   33   34 1
    61   33   60 1
    62   33   61 1
    63   34   35 2
    64   34   36 1
@<TRIPOS>MOLECULE
CHEMBL244148
   50    52     0     0     0
SMALL
USER_CHARGES

@<TRIPOS>ATOM
      1 C1          0.3291    1.7410    0.3652 C.3       1 <0>        -0.6754
      2 S1          0.4510   -0.0685    0.4020 S.o2      1 <0>         2.6095
      3 O1          1.4234   -0.4743    1.3554 O.2       1 <0>        -0.9537
      4 O2         -0.8471   -0.6467    0.4002 O.2       1 <0>        -0.9548
      5 N1          1.0994   -0.4812   -1.0649 N.pl3     1 <0>        -1.0000
      6 C2          0.2303   -0.7501   -2.2186 C.3       1 <0>         0.1228
      7 C3          0.5864   -2.1242   -2.7945 C.3       1 <0>        -0.1405
      8 C4          2.0830   -2.1678   -3.1114 C.3       1 <0>         0.1584
      9 C5          2.8849   -1.9610   -1.8244 C.3       1 <0>        -0.1490
     10 C6          2.5550   -0.5795   -1.2389 C.3       1 <0>         0.1196
     11 N2          2.4210   -3.4691   -3.6932 N.pl3     1 <0>        -0.7472
     12 C7          3.5364   -3.5939   -4.5250 C.ar      1 <0>         0.2146
     13 C8          4.3290   -2.4842   -4.7962 C.ar      1 <0>        -0.1988
     14 C9          5.4333   -2.6022   -5.6189 C.ar      1 <0>        -0.0757
     15 C10         5.7570   -3.8226   -6.1765 C.ar      1 <0>        -0.1541
     16 C11         4.9676   -4.9430   -5.9106 C.ar      1 <0>         0.0600
     17 C12         3.8562   -4.8252   -5.0756 C.ar      1 <0>        -0.1596
     18 C13         5.3114   -6.2507   -6.5072 C.2       1 <0>        -0.1372
     19 C14         4.4856   -7.1516   -7.1580 C.2       1 <0>        -0.1124
     20 C15         5.0273   -8.3168   -7.6371 C.2       1 <0>         0.0986
     21 C16         6.3922   -8.5415   -7.4455 C.2       1 <0>        -0.1403
     22 S2          6.8979   -7.0653   -6.5785 S.3       1 <0>         0.1404
     23 C17         7.1715   -9.6475   -7.8401 C.2       1 <0>         0.4868
     24 O3          6.6053  -10.6632   -8.4910 O.co2     1 <0>        -0.6352
     25 O4          8.4745   -9.6776   -7.5622 O.co2     1 <0>        -0.7107
     26 O5          4.2558   -9.2292   -8.2810 O.3       1 <0>        -0.2667
     27 C18         4.1366   -9.0930   -9.6985 C.3       1 <0>         0.0205
     28 C19         3.2487  -10.1861  -10.2352 C.2       1 <0>         0.5129
     29 O6          2.7631  -11.0057   -9.4744 O.co2     1 <0>        -0.6724
     30 O7          3.0161  -10.2508  -11.4303 O.co2     1 <0>        -0.7088
     31 Br1         2.6445   -6.7823   -7.3815 Br        1 <0>        -0.0362
     32 H1          1.3220    2.1694    0.2284 H         1 <0>         0.1269
     33 H2         -0.3147    2.0451   -0.4601 H         1 <0>         0.1267
     34 H3         -0.0934    2.0958    1.3053 H         1 <0>         0.1257
     35 H4         -0.8120   -0.7466   -1.8995 H         1 <0>         0.0972
     36 H5          0.3845    0.0158   -2.9786 H         1 <0>         0.0726
     37 H6          0.3463   -2.8978   -2.0651 H         1 <0>         0.0753
     38 H7          0.0161   -2.2949   -3.7076 H         1 <0>         0.0847
     39 H8          2.3269   -1.3781   -3.8221 H         1 <0>         0.0806
     40 H9          2.6231   -2.7361   -1.1041 H         1 <0>         0.0731
     41 H10         3.9505   -2.0154   -2.0470 H         1 <0>         0.0830
     42 H11         2.8950    0.2000   -1.9207 H         1 <0>         0.0713
     43 H12         3.0471   -0.4634   -0.2732 H         1 <0>         0.0956
     44 H13         1.8703   -4.2441   -3.5009 H         1 <0>         0.4000
     45 H14         4.0808   -1.5266   -4.3627 H         1 <0>         0.1166
     46 H15         6.0448   -1.7366   -5.8264 H         1 <0>         0.1199
     47 H16         6.6207   -3.9107   -6.8189 H         1 <0>         0.1224
     48 H17         3.2444   -5.6893   -4.8627 H         1 <0>         0.1268
     49 H18         3.7010   -8.1222   -9.9349 H         1 <0>         0.0352
     50 H19         5.1234   -9.1694  -10.1551 H         1 <0>         0.0513
@<TRIPOS>BOND
     1    1    2 1
     2    1   32 1
     3    1   33 1
     4    1   34 1
     5    2    3 2
     6    2    4 2
     7    2    5 1
     8    5   10 1
     9    5    6 1
    10    6    7 1
    11    6   35 1
    12    6   36 1
    13    7    8 1
    14    7   37 1
    15    7   38 1
    16    8    9 1
    17    8   11 1
    18    8   39 1
    19    9   10 1
    20    9   40 1
    21    9   41 1
    22   10   42 1
    23   10   43 1
    24   11   12 1
    25   11   44 1
    26   12   17 ar
    27   12   13 ar
    28   13   14 ar
    29   13   45 1
    30   14   15 ar
    31   14   46 1
    32   15   16 ar
    33   15   47 1
    34   16   17 ar
    35   16   18 1
    36   17   48 1
    37   18   22 1
    38   18   19 2
    39   19   20 1
    40   19   31 1
    41   20   21 2
    42   20   26 1
    43   21   22 1
    44   21   23 1
    45   23   24 2
    46   23   25 1
    47   26   27 1
    48   27   28 1
    49   27   49 1
    50   27   50 1
    51   28   29 2
    52   28   30 1
@<TRIPOS>MOLECULE
CHEMBL382311
   59    61     0     0     0
SMALL
USER_CHARGES

@<TRIPOS>ATOM
      1 C1         -0.0184    1.5028    0.0103 C.3       1 <0>        -0.1721
      2 C2          0.0021   -0.0041    0.0020 C.2       1 <0>         0.5156
      3 O1          0.0203   -0.6160    1.0489 O.2       1 <0>        -0.5162
      4 N1          0.0001   -0.6716   -1.1688 N.am      1 <0>        -0.7181
      5 C3          0.0199   -2.1365   -1.1769 C.3       1 <0>         0.1432
      6 H1          0.0151   -2.4942   -2.2065 H         1 <0>         0.1121
      7 C4          1.2828   -2.6333   -0.4703 C.3       1 <0>        -0.0919
      8 C5          2.4971   -2.2137   -1.2580 C.ar      1 <0>        -0.0752
      9 C6          2.9984   -3.0391   -2.2471 C.ar      1 <0>        -0.1159
     10 C7          4.1123   -2.6543   -2.9696 C.ar      1 <0>        -0.1171
     11 C8          4.7246   -1.4439   -2.7034 C.ar      1 <0>        -0.1240
     12 C9          4.2228   -0.6181   -1.7149 C.ar      1 <0>        -0.1200
     13 C10         3.1064   -1.0010   -0.9953 C.ar      1 <0>        -0.1073
     14 C11        -1.1968   -2.6593   -0.4576 C.2       1 <0>         0.5151
     15 O2         -1.7997   -1.9432    0.3135 O.2       1 <0>        -0.5050
     16 N2         -1.6148   -3.9226   -0.6713 N.am      1 <0>        -0.7073
     17 C12        -2.7976   -4.4309    0.0279 C.3       1 <0>         0.1365
     18 H2         -3.5238   -3.6265    0.1456 H         1 <0>         0.1167
     19 C13        -3.4219   -5.5667   -0.7852 C.3       1 <0>        -0.0792
     20 C14        -3.9351   -5.0242   -2.0942 C.ar      1 <0>        -0.0943
     21 C15        -5.2303   -4.5499   -2.1856 C.ar      1 <0>        -0.1151
     22 C16        -5.7010   -4.0523   -3.3863 C.ar      1 <0>        -0.1073
     23 C17        -4.8763   -4.0286   -4.4955 C.ar      1 <0>        -0.0495
     24 C18        -3.5808   -4.5020   -4.4038 C.ar      1 <0>        -0.1012
     25 C19        -3.1087   -4.9957   -3.2020 C.ar      1 <0>        -0.1052
     26 C20        -5.3898   -3.4870   -5.8047 C.3       1 <0>        -0.5511
     27 H3         -6.4200   -3.1424   -5.7155 H         1 <0>         0.1391
     28 C21        -5.2296   -4.5207   -6.9538 C.3       1 <0>        -0.1413
     29 C22        -4.7885   -3.7897   -8.1860 C.2       1 <0>         0.4320
     30 O3         -4.9123   -4.3719   -9.3968 O.3       1 <0>        -0.6592
     31 N3         -4.2941   -2.6109   -8.0889 N.2       1 <0>        -0.9078
     32 S1         -4.2897   -2.1700   -6.4717 S.o2      1 <0>         2.4575
     33 O4         -4.9246   -0.9000   -6.4149 O.2       1 <0>        -0.9826
     34 O5         -2.9524   -2.3505   -6.0264 O.2       1 <0>        -0.9807
     35 C23        -2.3955   -4.9471    1.3855 C.2       1 <0>         0.5066
     36 O6         -1.2351   -4.8955    1.7345 O.2       1 <0>        -0.5257
     37 N4         -3.3253   -5.4661    2.2116 N.am      1 <0>        -0.8556
     38 H4          1.0042    1.8801    0.0026 H         1 <0>         0.0890
     39 H5         -0.5455    1.8639   -0.8728 H         1 <0>         0.0788
     40 H6         -0.5286    1.8543    0.9071 H         1 <0>         0.0908
     41 H7         -0.0145   -0.1822   -2.0061 H         1 <0>         0.4070
     42 H8          1.3324   -2.2034    0.5301 H         1 <0>         0.1024
     43 H9          1.2546   -3.7205   -0.3977 H         1 <0>         0.0852
     44 H10         2.5201   -3.9848   -2.4551 H         1 <0>         0.1226
     45 H11         4.5044   -3.2995   -3.7419 H         1 <0>         0.1216
     46 H12         5.5953   -1.1436   -3.2674 H         1 <0>         0.1192
     47 H13         4.7014    0.3274   -1.5066 H         1 <0>         0.1191
     48 H14         2.7121   -0.3542   -0.2255 H         1 <0>         0.1157
     49 H15        -1.1326   -4.4953   -1.2880 H         1 <0>         0.4026
     50 H16        -2.6695   -6.3312   -0.9787 H         1 <0>         0.0859
     51 H17        -4.2480   -6.0037   -0.2242 H         1 <0>         0.0921
     52 H18        -5.8746   -4.5685   -1.3190 H         1 <0>         0.1221
     53 H19        -6.7131   -3.6824   -3.4579 H         1 <0>         0.1245
     54 H20        -2.9366   -4.4838   -5.2705 H         1 <0>         0.1397
     55 H21        -2.0954   -5.3621   -3.1294 H         1 <0>         0.1215
     56 H22        -4.4804   -5.2631   -6.6788 H         1 <0>         0.1038
     57 H23        -6.1836   -5.0138   -7.1405 H         1 <0>         0.1062
     58 H24        -4.2533   -5.5074    1.9325 H         1 <0>         0.4004
     59 H25        -3.0665   -5.7984    3.0854 H         1 <0>         0.4013
@<TRIPOS>BOND
     1    1    2 1
     2    1   38 1
     3    1   39 1
     4    1   40 1
     5    2    3 2
     6    2    4 am
     7    4    5 1
     8    4   41 1
     9    5    6 1
    10    5    7 1
    11    5   14 1
    12    7    8 1
    13    7   42 1
    14    7   43 1
    15    8   13 ar
    16    8    9 ar
    17    9   10 ar
    18    9   44 1
    19   10   11 ar
    20   10   45 1
    21   11   12 ar
    22   11   46 1
    23   12   13 ar
    24   12   47 1
    25   13   48 1
    26   14   15 2
    27   14   16 am
    28   16   17 1
    29   16   49 1
    30   17   18 1
    31   17   19 1
    32   17   35 1
    33   19   20 1
    34   19   50 1
    35   19   51 1
    36   20   25 ar
    37   20   21 ar
    38   21   22 ar
    39   21   52 1
    40   22   23 ar
    41   22   53 1
    42   23   24 ar
    43   23   26 1
    44   24   25 ar
    45   24   54 1
    46   25   55 1
    47   26   27 1
    48   26   32 1
    49   26   28 1
    50   28   29 1
    51   28   56 1
    52   28   57 1
    53   29   30 1
    54   29   31 2
    55   31   32 1
    56   32   33 2
    57   32   34 2
    58   35   36 2
    59   35   37 am
    60   37   58 1
    61   37   59 1
@<TRIPOS>MOLECULE
CHEMBL387242
   38    40     0     0     0
SMALL
USER_CHARGES

@<TRIPOS>ATOM
      1 C1         -0.0109    1.2321   -0.7298 C.2       1 <0>        -0.2256
      2 C2          1.3256    1.6147   -0.9233 C.2       1 <0>        -0.1166
      3 C3          2.0982    0.5753   -0.4899 C.2       1 <0>        -0.0770
      4 O1          1.2767   -0.4006   -0.0506 O.3       1 <0>        -0.1643
      5 C4          0.0041   -0.0082   -0.1936 C.2       1 <0>        -0.0054
      6 C5          3.5635    0.5282   -0.5001 C.2       1 <0>         0.6004
      7 O2          4.1999    1.4755   -0.9232 O.2       1 <0>        -0.4966
      8 N1          4.2059   -0.5641   -0.0411 N.am      1 <0>        -0.6574
      9 C6          5.5954   -0.6519   -0.1450 C.ar      1 <0>         0.1292
     10 C7          6.3760    0.4888    0.0080 C.ar      1 <0>        -0.1154
     11 C8          7.7473    0.4056   -0.0934 C.ar      1 <0>        -0.0820
     12 C9          8.3536   -0.8264   -0.3502 C.ar      1 <0>         0.0080
     13 C10         7.5665   -1.9703   -0.5034 C.ar      1 <0>        -0.0715
     14 C11         6.1961   -1.8810   -0.3955 C.ar      1 <0>        -0.1346
     15 C12         9.8233   -0.9193   -0.4601 C.2       1 <0>        -0.1389
     16 C13        10.6814   -1.8369    0.1239 C.2       1 <0>        -0.1125
     17 C14        12.0261   -1.7312   -0.1204 C.2       1 <0>         0.0991
     18 C15        12.4705   -0.6989   -0.9501 C.2       1 <0>        -0.1388
     19 S1         10.9437    0.1173   -1.3851 S.3       1 <0>         0.1423
     20 C16        13.7851   -0.3860   -1.3463 C.2       1 <0>         0.4862
     21 O3         14.8056   -1.1272   -0.9147 O.co2     1 <0>        -0.6349
     22 O4         14.0091    0.6514   -2.1529 O.co2     1 <0>        -0.7102
     23 O5         12.9040   -2.6074    0.4307 O.3       1 <0>        -0.2666
     24 C17        13.1996   -3.7876   -0.3188 C.3       1 <0>         0.0205
     25 C18        14.1852   -4.6340    0.4448 C.2       1 <0>         0.5129
     26 O6         14.5965   -4.2611    1.5303 O.co2     1 <0>        -0.6722
     27 O7         14.5714   -5.6917   -0.0229 O.co2     1 <0>        -0.7088
     28 Br1        10.0101   -3.2096    1.2380 Br        1 <0>        -0.0363
     29 H1         -0.8866    1.8203   -0.9615 H         1 <0>         0.1573
     30 H2          1.6752    2.5499   -1.3351 H         1 <0>         0.1624
     31 H3         -0.8667   -0.5877    0.0752 H         1 <0>         0.2107
     32 H4          3.7028   -1.2892    0.3614 H         1 <0>         0.4140
     33 H5          5.9066    1.4411    0.2062 H         1 <0>         0.1398
     34 H6          8.3529    1.2919    0.0252 H         1 <0>         0.1329
     35 H7          8.0321   -2.9244   -0.7020 H         1 <0>         0.1353
     36 H8          5.5872   -2.7657   -0.5097 H         1 <0>         0.1281
     37 H9         12.2827   -4.3544   -0.4806 H         1 <0>         0.0351
     38 H10        13.6289   -3.5089   -1.2811 H         1 <0>         0.0515
@<TRIPOS>BOND
     1    1    5 2
     2    1    2 1
     3    1   29 1
     4    2    3 2
     5    2   30 1
     6    3    4 1
     7    3    6 1
     8    4    5 1
     9    5   31 1
    10    6    7 2
    11    6    8 am
    12    8    9 1
    13    8   32 1
    14    9   14 ar
    15    9   10 ar
    16   10   11 ar
    17   10   33 1
    18   11   12 ar
    19   11   34 1
    20   12   13 ar
    21   12   15 1
    22   13   14 ar
    23   13   35 1
    24   14   36 1
    25   15   19 1
    26   15   16 2
    27   16   17 1
    28   16   28 1
    29   17   18 2
    30   17   23 1
    31   18   19 1
    32   18   20 1
    33   20   21 2
    34   20   22 1
    35   23   24 1
    36   24   25 1
    37   24   37 1
    38   24   38 1
    39   25   26 2
    40   25   27 1
@<TRIPOS>MOLECULE
CHEMBL259051
   28    29     0     0     0
SMALL
USER_CHARGES

@<TRIPOS>ATOM
      1 C1         -0.0203    1.3664   -0.2919 C.ar      1 <0>        -0.1051
      2 C2          1.1355    2.0723   -0.4295 C.ar      1 <0>        -0.1099
      3 C3          2.3705    1.4083   -0.3403 C.ar      1 <0>        -0.0376
      4 C4          3.5843    2.1034   -0.4760 C.ar      1 <0>        -0.1175
      5 C5          4.7623    1.4265   -0.3828 C.ar      1 <0>        -0.0380
      6 C6          4.7834    0.0508   -0.1543 C.ar      1 <0>        -0.1191
      7 C7          3.6278   -0.6544   -0.0179 C.ar      1 <0>        -0.0303
      8 C8          2.3925    0.0101   -0.1080 C.ar      1 <0>        -0.0507
      9 C9          1.1790   -0.6846    0.0288 C.ar      1 <0>        -0.0506
     10 C10         0.0014   -0.0079   -0.0634 C.ar      1 <0>        -0.1194
     11 C11        -1.2983   -0.7564    0.0838 C.3       1 <0>         0.0216
     12 C12        -1.7452   -1.2280   -1.2370 C.1       1 <0>         0.2146
     13 N1         -2.0902   -1.5920   -2.2563 N.1       1 <0>        -0.4428
     14 C13         6.1058   -0.6653   -0.0575 C.3       1 <0>        -0.2341
     15 F1          6.8625   -0.4044   -1.2050 F         1 <0>        -0.2033
     16 F2          6.7990   -0.2142    1.0708 F         1 <0>        -0.2049
     17 P1          5.8163   -2.4596    0.0844 P.3       1 <0>         2.1348
     18 O1          5.0702   -2.7635    1.4280 O.2       1 <0>        -1.1319
     19 O2          4.9401   -2.9441   -1.1206 O.3       1 <0>        -1.1316
     20 O3          7.1897   -3.2131    0.0677 O.3       1 <0>        -1.1367
     21 Br1         6.3933    2.3654   -0.5666 Br        1 <0>        -0.0553
     22 H1         -0.9681    1.8800   -0.3563 H         1 <0>         0.1208
     23 H2          1.1033    3.1372   -0.6066 H         1 <0>         0.1239
     24 H3          3.5830    3.1687   -0.6536 H         1 <0>         0.1315
     25 H4          3.6595   -1.7193    0.1591 H         1 <0>         0.1915
     26 H5          1.1803   -1.7500    0.2058 H         1 <0>         0.1436
     27 H6         -1.1526   -1.6110    0.7446 H         1 <0>         0.1214
     28 H7         -2.0531   -0.0940    0.5076 H         1 <0>         0.1148
@<TRIPOS>BOND
     1    1   10 ar
     2    1    2 ar
     3    1   22 1
     4    2    3 ar
     5    2   23 1
     6    3    8 ar
     7    3    4 ar
     8    4    5 ar
     9    4   24 1
    10    5    6 ar
    11    5   21 1
    12    6    7 ar
    13    6   14 1
    14    7    8 ar
    15    7   25 1
    16    8    9 ar
    17    9   10 ar
    18    9   26 1
    19   10   11 1
    20   11   12 1
    21   11   27 1
    22   11   28 1
    23   12   13 3
    24   14   15 1
    25   14   16 1
    26   14   17 1
    27   17   18 2
    28   17   19 1
    29   17   20 1
@<TRIPOS>MOLECULE
CHEMBL8758
   46    48     0     0     0
SMALL
USER_CHARGES

@<TRIPOS>ATOM
      1 C1         -0.4961    1.3204   -0.3340 C.ar      1 <0>        -0.1115
      2 C2          0.5953    2.1679   -0.2965 C.ar      1 <0>        -0.1056
      3 C3          1.8685    1.6494   -0.1523 C.ar      1 <0>        -0.1017
      4 C4          2.0503    0.2832   -0.0452 C.ar      1 <0>        -0.0725
      5 C5          0.9589   -0.5643   -0.0818 C.ar      1 <0>        -0.1155
      6 C6         -0.3142   -0.0458   -0.2274 C.ar      1 <0>        -0.1167
      7 C7          3.4385   -0.2822    0.1110 C.3       1 <0>        -0.0860
      8 C8          3.7401   -1.2237   -1.0568 C.3       1 <0>        -0.0529
      9 C9          3.7725   -0.4363   -2.3413 C.ar      1 <0>        -0.0880
     10 C10         2.6136   -0.2629   -3.0752 C.ar      1 <0>        -0.0979
     11 C11         2.6427    0.4591   -4.2534 C.ar      1 <0>        -0.0545
     12 C12         3.8307    1.0082   -4.6987 C.ar      1 <0>        -0.0923
     13 C13         4.9901    0.8354   -3.9647 C.ar      1 <0>        -0.0672
     14 C14         4.9594    0.1171   -2.7827 C.ar      1 <0>        -0.1156
     15 Br1         6.6156    1.5857   -4.5735 Br        1 <0>        -0.0645
     16 C15         3.8625    1.7946   -5.9838 C.3       1 <0>        -0.2360
     17 F1          4.4069    3.0605   -5.7426 F         1 <0>        -0.2044
     18 F2          4.6490    1.1201   -6.9239 F         1 <0>        -0.2061
     19 P1          2.1667    1.9751   -6.6279 P.3       1 <0>         2.1391
     20 O1          1.5989    0.5649   -7.0065 O.2       1 <0>        -1.1346
     21 O2          1.2579    2.6266   -5.5306 O.3       1 <0>        -1.1319
     22 O3          2.1858    2.8891   -7.9002 O.3       1 <0>        -1.1399
     23 C16         3.5271   -1.0455    1.4074 C.2       1 <0>         0.4109
     24 O4          3.3504   -2.2450    1.4180 O.2       1 <0>        -0.4471
     25 C17         3.8281   -0.3349    2.6605 C.ar      1 <0>        -0.1611
     26 C18         4.0268    1.0494    2.6533 C.ar      1 <0>        -0.0661
     27 C19         4.3080    1.7080    3.8316 C.ar      1 <0>        -0.1323
     28 C20         4.3937    1.0026    5.0194 C.ar      1 <0>        -0.0926
     29 C21         4.1988   -0.3675    5.0347 C.ar      1 <0>        -0.1373
     30 C22         3.9112   -1.0397    3.8656 C.ar      1 <0>        -0.0639
     31 H1         -1.4913    1.7258   -0.4422 H         1 <0>         0.1218
     32 H2          0.4532    3.2353   -0.3802 H         1 <0>         0.1245
     33 H3          2.7212    2.3115   -0.1237 H         1 <0>         0.1191
     34 H4          1.1010   -1.6317    0.0015 H         1 <0>         0.1205
     35 H5         -1.1669   -0.7080   -0.2564 H         1 <0>         0.1205
     36 H6          4.1636    0.5316    0.1182 H         1 <0>         0.1044
     37 H7          4.7073   -1.7007   -0.8985 H         1 <0>         0.0742
     38 H8          2.9642   -1.9869   -1.1179 H         1 <0>         0.0850
     39 H9          1.6854   -0.6921   -2.7278 H         1 <0>         0.1265
     40 H10         1.7373    0.5940   -4.8265 H         1 <0>         0.1826
     41 H11         5.8638   -0.0150   -2.2073 H         1 <0>         0.1212
     42 H12         3.9606    1.6011    1.7272 H         1 <0>         0.1352
     43 H13         4.4621    2.7769    3.8277 H         1 <0>         0.1289
     44 H14         4.6143    1.5241    5.9391 H         1 <0>         0.1241
     45 H15         4.2677   -0.9110    5.9655 H         1 <0>         0.1256
     46 H16         3.7549   -2.1082    3.8798 H         1 <0>         0.1319
@<TRIPOS>BOND
     1    1    6 ar
     2    1    2 ar
     3    1   31 1
     4    2    3 ar
     5    2   32 1
     6    3    4 ar
     7    3   33 1
     8    4    5 ar
     9    4    7 1
    10    5    6 ar
    11    5   34 1
    12    6   35 1
    13    7    8 1
    14    7   23 1
    15    7   36 1
    16    8    9 1
    17    8   37 1
    18    8   38 1
    19    9   14 ar
    20    9   10 ar
    21   10   11 ar
    22   10   39 1
    23   11   12 ar
    24   11   40 1
    25   12   13 ar
    26   12   16 1
    27   13   14 ar
    28   13   15 1
    29   14   41 1
    30   16   17 1
    31   16   18 1
    32   16   19 1
    33   19   20 2
    34   19   21 1
    35   19   22 1
    36   23   24 2
    37   23   25 1
    38   25   30 ar
    39   25   26 ar
    40   26   27 ar
    41   26   42 1
    42   27   28 ar
    43   27   43 1
    44   28   29 ar
    45   28   44 1
    46   29   30 ar
    47   29   45 1
    48   30   46 1
@<TRIPOS>MOLECULE
CHEMBL8758__1
   46    48     0     0     0
SMALL
USER_CHARGES

@<TRIPOS>ATOM
      1 C1          0.5147    2.2895   -0.3029 C.ar      1 <0>        -0.1192
      2 C2          1.7781    2.8326   -0.1623 C.ar      1 <0>        -0.1127
      3 C3          2.8860    2.0064   -0.1310 C.ar      1 <0>        -0.0995
      4 C4          2.7304    0.6372   -0.2398 C.ar      1 <0>        -0.0647
      5 C5          1.4669    0.0941   -0.3796 C.ar      1 <0>        -0.1134
      6 C6          0.3591    0.9203   -0.4123 C.ar      1 <0>        -0.1206
      7 C7          3.9382   -0.2635   -0.2067 C.3       1 <0>        -0.0909
      8 C8          3.8201   -1.2318    0.9720 C.3       1 <0>        -0.0526
      9 C9          3.8643   -0.4578    2.2643 C.ar      1 <0>        -0.0902
     10 C10         5.0769   -0.2107    2.8809 C.ar      1 <0>        -0.1107
     11 C11         5.1181    0.4991    4.0662 C.ar      1 <0>        -0.0569
     12 C12         3.9467    0.9622    4.6358 C.ar      1 <0>        -0.0926
     13 C13         2.7335    0.7156    4.0192 C.ar      1 <0>        -0.0648
     14 C14         2.6933    0.0097    2.8301 C.ar      1 <0>        -0.1024
     15 Br1         1.1308    1.3483    4.7982 Br        1 <0>        -0.0639
     16 C15         3.9916    1.7353    5.9286 C.3       1 <0>        -0.2358
     17 F1          3.3414    2.9626    5.7609 F         1 <0>        -0.2042
     18 F2          3.3512    1.0017    6.9331 F         1 <0>        -0.2060
     19 P1          5.7276    2.0270    6.4022 P.3       1 <0>         2.1399
     20 O1          6.4245    0.6563    6.7022 O.2       1 <0>        -1.1345
     21 O2          6.4751    2.7471    5.2287 O.3       1 <0>        -1.1335
     22 O3          5.7752    2.9283    7.6828 O.3       1 <0>        -1.1397
     23 C16         4.0176   -1.0449   -1.4928 C.2       1 <0>         0.4125
     24 O4          3.4688   -2.1224   -1.5823 O.2       1 <0>        -0.4484
     25 C17         4.7612   -0.5003   -2.6400 C.ar      1 <0>        -0.1631
     26 C18         5.4004    0.7395   -2.5387 C.ar      1 <0>        -0.0661
     27 C19         6.0956    1.2428   -3.6180 C.ar      1 <0>        -0.1309
     28 C20         6.1618    0.5245   -4.7991 C.ar      1 <0>        -0.0916
     29 C21         5.5315   -0.7030   -4.9074 C.ar      1 <0>        -0.1376
     30 C22         4.8372   -1.2224   -3.8352 C.ar      1 <0>        -0.0638
     31 H1         -0.3512    2.9347   -0.3229 H         1 <0>         0.1178
     32 H2          1.8997    3.9023   -0.0772 H         1 <0>         0.1227
     33 H3          3.8731    2.4307   -0.0218 H         1 <0>         0.1254
     34 H4          1.3453   -0.9757   -0.4650 H         1 <0>         0.1221
     35 H5         -0.6280    0.4961   -0.5219 H         1 <0>         0.1180
     36 H6          4.8385    0.3402   -0.0921 H         1 <0>         0.1098
     37 H7          2.8763   -1.7728    0.9046 H         1 <0>         0.0802
     38 H8          4.6479   -1.9404    0.9444 H         1 <0>         0.0801
     39 H9          5.9922   -0.5726    2.4364 H         1 <0>         0.1291
     40 H10         6.0655    0.6917    4.5476 H         1 <0>         0.1832
     41 H11         1.7465   -0.1799    2.3462 H         1 <0>         0.1207
     42 H12         5.3494    1.3014   -1.6178 H         1 <0>         0.1366
     43 H13         6.5895    2.2002   -3.5415 H         1 <0>         0.1306
     44 H14         6.7078    0.9240   -5.6409 H         1 <0>         0.1246
     45 H15         5.5873   -1.2574   -5.8325 H         1 <0>         0.1255
     46 H16         4.3496   -2.1824   -3.9197 H         1 <0>         0.1313
@<TRIPOS>BOND
     1    1    6 ar
     2    1    2 ar
     3    1   31 1
     4    2    3 ar
     5    2   32 1
     6    3    4 ar
     7    3   33 1
     8    4    5 ar
     9    4    7 1
    10    5    6 ar
    11    5   34 1
    12    6   35 1
    13    7    8 1
    14    7   23 1
    15    7   36 1
    16    8    9 1
    17    8   37 1
    18    8   38 1
    19    9   14 ar
    20    9   10 ar
    21   10   11 ar
    22   10   39 1
    23   11   12 ar
    24   11   40 1
    25   12   13 ar
    26   12   16 1
    27   13   14 ar
    28   13   15 1
    29   14   41 1
    30   16   17 1
    31   16   18 1
    32   16   19 1
    33   19   20 2
    34   19   21 1
    35   19   22 1
    36   23   24 2
    37   23   25 1
    38   25   30 ar
    39   25   26 ar
    40   26   27 ar
    41   26   42 1
    42   27   28 ar
    43   27   43 1
    44   28   29 ar
    45   28   44 1
    46   29   30 ar
    47   29   45 1
    48   30   46 1
@<TRIPOS>MOLECULE
CHEMBL494537
   54    58     0     0     0
SMALL
USER_CHARGES

@<TRIPOS>ATOM
      1 C1         -0.9247    0.8227   -0.1119 C.ar      1 <0>        -0.1498
      2 C2          0.1060    1.6920   -0.4381 C.ar      1 <0>        -0.0581
      3 C3          1.4084    1.2448   -0.5063 C.ar      1 <0>        -0.1415
      4 C4          1.6978   -0.0892   -0.2467 C.ar      1 <0>         0.1451
      5 C5          0.6541   -0.9677    0.0832 C.ar      1 <0>        -0.2203
      6 C6         -0.6585   -0.5038    0.1490 C.ar      1 <0>        -0.0299
      7 C7          0.9832   -2.3814    0.3554 C.2       1 <0>         0.4276
      8 O1          0.1169   -3.1895    0.6464 O.2       1 <0>        -0.4581
      9 C8          2.3414   -2.7611    0.2648 C.2       1 <0>        -0.2554
     10 C9          3.2782   -1.8289   -0.0632 C.2       1 <0>         0.1994
     11 O2          2.9657   -0.5471   -0.3085 O.3       1 <0>        -0.2162
     12 C10         4.6906   -2.2439   -0.1524 C.ar      1 <0>        -0.0728
     13 C11         5.0707   -3.2494   -1.0461 C.ar      1 <0>        -0.0664
     14 C12         6.3908   -3.6335   -1.1264 C.ar      1 <0>        -0.1463
     15 C13         7.3445   -3.0230   -0.3206 C.ar      1 <0>         0.1306
     16 C14         6.9710   -2.0232    0.5696 C.ar      1 <0>        -0.1451
     17 C15         5.6541   -1.6289    0.6524 C.ar      1 <0>        -0.0598
     18 O3          8.6447   -3.4047   -0.4030 O.3       1 <0>        -0.4955
     19 C16         2.7501   -4.1872    0.5299 C.3       1 <0>        -0.0216
     20 C17         2.9575   -4.3836    2.0096 C.ar      1 <0>        -0.0908
     21 C18         4.2257   -4.2650    2.5493 C.ar      1 <0>        -0.1091
     22 C19         4.4217   -4.4437    3.9035 C.ar      1 <0>        -0.1150
     23 C20         3.3385   -4.7443    4.7281 C.ar      1 <0>        -0.0256
     24 C21         2.0628   -4.8626    4.1786 C.ar      1 <0>        -0.1153
     25 C22         1.8781   -4.6761    2.8238 C.ar      1 <0>        -0.1031
     26 C23         3.5427   -4.9380    6.1839 C.ar      1 <0>        -0.0512
     27 C24         4.8223   -4.8133    6.7306 C.ar      1 <0>        -0.1340
     28 C25         5.0200   -4.9902    8.0689 C.ar      1 <0>        -0.0715
     29 C26         3.9398   -5.2983    8.9045 C.ar      1 <0>        -0.1541
     30 C27         2.6508   -5.4247    8.3616 C.ar      1 <0>         0.1374
     31 C28         2.4577   -5.2381    7.0032 C.ar      1 <0>        -0.1523
     32 O4          1.5994   -5.7231    9.1646 O.3       1 <0>        -0.4737
     33 C29         4.1544   -5.4896   10.3464 C.2       1 <0>         0.5180
     34 O5          5.2783   -5.3795   10.8176 O.co2     1 <0>        -0.6913
     35 O6          3.2091   -5.7589   11.0752 O.co2     1 <0>        -0.6704
     36 H1         -1.9395    1.1883   -0.0579 H         1 <0>         0.1362
     37 H2         -0.1141    2.7297   -0.6411 H         1 <0>         0.1404
     38 H3          2.2028    1.9306   -0.7616 H         1 <0>         0.1429
     39 H4         -1.4617   -1.1795    0.4031 H         1 <0>         0.1427
     40 H5          4.3301   -3.7246   -1.6723 H         1 <0>         0.1381
     41 H6          6.6852   -4.4105   -1.8163 H         1 <0>         0.1390
     42 H7          7.7152   -1.5520    1.1945 H         1 <0>         0.1387
     43 H8          5.3654   -0.8489    1.3413 H         1 <0>         0.1350
     44 H9          9.1603   -2.9070   -1.0522 H         1 <0>         0.3950
     45 H10         1.9674   -4.8604    0.1802 H         1 <0>         0.0897
     46 H11         3.6784   -4.4034    0.0011 H         1 <0>         0.0879
     47 H12         5.0641   -4.0325    1.9095 H         1 <0>         0.1168
     48 H13         5.4123   -4.3513    4.3237 H         1 <0>         0.1251
     49 H14         1.2201   -5.0956    4.8126 H         1 <0>         0.1245
     50 H15         0.8895   -4.7628    2.3977 H         1 <0>         0.1275
     51 H16         5.6593   -4.5760    6.0906 H         1 <0>         0.1186
     52 H17         6.0121   -4.8926    8.4846 H         1 <0>         0.1312
     53 H18         1.4686   -5.3297    6.5795 H         1 <0>         0.1233
     54 H19         1.1532   -4.9481    9.5325 H         1 <0>         0.3835
@<TRIPOS>BOND
     1    1    6 ar
     2    1    2 ar
     3    1   36 1
     4    2    3 ar
     5    2   37 1
     6    3    4 ar
     7    3   38 1
     8    4   11 1
     9    4    5 ar
    10    5    6 ar
    11    5    7 1
    12    6   39 1
    13    7    8 2
    14    7    9 1
    15    9   10 2
    16    9   19 1
    17   10   11 1
    18   10   12 1
    19   12   17 ar
    20   12   13 ar
    21   13   14 ar
    22   13   40 1
    23   14   15 ar
    24   14   41 1
    25   15   16 ar
    26   15   18 1
    27   16   17 ar
    28   16   42 1
    29   17   43 1
    30   18   44 1
    31   19   20 1
    32   19   45 1
    33   19   46 1
    34   20   25 ar
    35   20   21 ar
    36   21   22 ar
    37   21   47 1
    38   22   23 ar
    39   22   48 1
    40   23   24 ar
    41   23   26 1
    42   24   25 ar
    43   24   49 1
    44   25   50 1
    45   26   31 ar
    46   26   27 ar
    47   27   28 ar
    48   27   51 1
    49   28   29 ar
    50   28   52 1
    51   29   30 ar
    52   29   33 1
    53   30   31 ar
    54   30   32 1
    55   31   53 1
    56   32   54 1
    57   33   34 2
    58   33   35 1
@<TRIPOS>MOLECULE
CHEMBL253282
   60    64     0     0     0
SMALL
USER_CHARGES

@<TRIPOS>ATOM
      1 C1         -0.0167    1.3793    0.0096 C.ar      1 <0>        -0.1210
      2 C2          1.1684    2.0932    0.0021 C.ar      1 <0>        -0.1109
      3 C3          2.3774    1.4287   -0.0129 C.ar      1 <0>        -0.1023
      4 C4          2.4032    0.0336   -0.0206 C.ar      1 <0>        -0.0088
      5 C5          1.2044   -0.6805   -0.0130 C.ar      1 <0>        -0.1224
      6 C6          0.0021   -0.0041    0.0020 C.ar      1 <0>        -0.1104
      7 C7          3.6958   -0.6852   -0.0373 C.2       1 <0>         0.0127
      8 C8          4.9372   -0.1282   -0.0406 C.2       1 <0>         0.0082
      9 N1          5.8333   -1.1217   -0.0563 N.2       1 <0>        -0.4705
     10 C9          5.2120   -2.2703   -0.0630 C.2       1 <0>         0.2173
     11 N2          3.8796   -2.0494   -0.0463 N.pl3     1 <0>        -0.5557
     12 H1          3.1834   -2.7248   -0.0436 H         1 <0>         0.4181
     13 C10         5.8746   -3.6237   -0.0812 C.3       1 <0>         0.2501
     14 C11         6.8336   -3.7060   -1.2706 C.3       1 <0>        -0.0804
     15 C12         7.5865   -5.0104   -1.2195 C.ar      1 <0>        -0.0938
     16 C13         8.7857   -5.0900   -0.5365 C.ar      1 <0>        -0.1081
     17 C14         9.4764   -6.2865   -0.4896 C.ar      1 <0>        -0.1095
     18 C15         8.9676   -7.4036   -1.1252 C.ar      1 <0>        -0.0386
     19 C16         7.7679   -7.3243   -1.8074 C.ar      1 <0>        -0.0807
     20 C17         7.0751   -6.1289   -1.8507 C.ar      1 <0>        -0.0687
     21 C18         9.7210   -8.7078   -1.0749 C.3       1 <0>        -0.5481
     22 C19         9.8966   -9.3222   -2.4914 C.3       1 <0>        -0.1439
     23 C20         9.6914  -10.8037   -2.3901 C.2       1 <0>         0.4320
     24 O1         10.1245  -11.6141   -3.3781 O.3       1 <0>        -0.6643
     25 N3          9.1047  -11.3005   -1.3643 N.2       1 <0>        -0.9157
     26 S1          8.7061  -10.0486   -0.3255 S.o2      1 <0>         2.4593
     27 O2          9.2182  -10.4240    0.9457 O.2       1 <0>        -0.9884
     28 O3          7.3197   -9.8087   -0.5243 O.2       1 <0>        -0.9733
     29 N4          4.8527   -4.6661   -0.2048 N.pl3     1 <0>        -1.1196
     30 S2          5.0542   -6.1185    0.5648 S.o2      1 <0>         2.6667
     31 O4          3.8988   -6.8941    0.2775 O.2       1 <0>        -0.9449
     32 O5          6.3674   -6.5640    0.2542 O.2       1 <0>        -0.8869
     33 C21         5.0277   -5.7981    2.2973 C.ar      1 <0>        -0.6526
     34 C22         6.2035   -5.5082    2.9645 C.ar      1 <0>        -0.0291
     35 C23         6.1843   -5.2567    4.3235 C.ar      1 <0>        -0.1069
     36 C24         4.9893   -5.2952    5.0172 C.ar      1 <0>        -0.0999
     37 C25         3.8115   -5.5854    4.3502 C.ar      1 <0>         0.0787
     38 C26         3.8312   -5.8312    2.9875 C.ar      1 <0>        -0.0589
     39 F1          2.6430   -5.6238    5.0272 F         1 <0>        -0.1349
     40 H2         -0.9604    1.9041    0.0260 H         1 <0>         0.1242
     41 H3          1.1470    3.1730    0.0078 H         1 <0>         0.1277
     42 H4          3.3018    1.9872   -0.0191 H         1 <0>         0.1297
     43 H5          1.2178   -1.7604   -0.0193 H         1 <0>         0.1153
     44 H6         -0.9265   -0.5556    0.0079 H         1 <0>         0.1254
     45 H7          5.1598    0.9286   -0.0321 H         1 <0>         0.1762
     46 H8          6.4311   -3.7683    0.8448 H         1 <0>         0.1135
     47 H9          6.2660   -3.6503   -2.1995 H         1 <0>         0.0795
     48 H10         7.5398   -2.8769   -1.2260 H         1 <0>         0.0993
     49 H11         9.1833   -4.2172   -0.0399 H         1 <0>         0.1159
     50 H12        10.4137   -6.3485    0.0434 H         1 <0>         0.1157
     51 H13         7.3705   -8.1970   -2.3043 H         1 <0>         0.1250
     52 H14         6.1360   -6.0679   -2.3806 H         1 <0>         0.1076
     53 H15        10.6772   -8.5949   -0.5640 H         1 <0>         0.1362
     54 H16         9.1600   -8.8946   -3.1716 H         1 <0>         0.1038
     55 H17        10.9009   -9.1145   -2.8604 H         1 <0>         0.1046
     56 H18         4.0581   -4.5056   -0.7374 H         1 <0>         0.4137
     57 H19         7.1378   -5.4786    2.4235 H         1 <0>         0.1535
     58 H20         7.1033   -5.0303    4.8437 H         1 <0>         0.1460
     59 H21         4.9746   -5.0993    6.0791 H         1 <0>         0.1439
     60 H22         2.9123   -6.0533    2.4653 H         1 <0>         0.1494
@<TRIPOS>BOND
     1    1    6 ar
     2    1    2 ar
     3    1   40 1
     4    2    3 ar
     5    2   41 1
     6    3    4 ar
     7    3   42 1
     8    4    5 ar
     9    4    7 1
    10    5    6 ar
    11    5   43 1
    12    6   44 1
    13    7   11 1
    14    7    8 2
    15    8    9 1
    16    8   45 1
    17    9   10 2
    18   10   11 1
    19   10   13 1
    20   11   12 1
    21   13   14 1
    22   13   29 1
    23   13   46 1
    24   14   15 1
    25   14   47 1
    26   14   48 1
    27   15   20 ar
    28   15   16 ar
    29   16   17 ar
    30   16   49 1
    31   17   18 ar
    32   17   50 1
    33   18   19 ar
    34   18   21 1
    35   19   20 ar
    36   19   51 1
    37   20   52 1
    38   21   26 1
    39   21   22 1
    40   21   53 1
    41   22   23 1
    42   22   54 1
    43   22   55 1
    44   23   24 1
    45   23   25 2
    46   25   26 1
    47   26   27 2
    48   26   28 2
    49   29   30 1
    50   29   56 1
    51   30   31 2
    52   30   32 2
    53   30   33 1
    54   33   38 ar
    55   33   34 ar
    56   34   35 ar
    57   34   57 1
    58   35   36 ar
    59   35   58 1
    60   36   37 ar
    61   36   59 1
    62   37   38 ar
    63   37   39 1
    64   38   60 1
@<TRIPOS>MOLECULE
CHEMBL253282__1
   60    64     0     0     0
SMALL
USER_CHARGES

@<TRIPOS>ATOM
      1 C1         -0.0167    1.3790    0.0096 C.ar      1 <0>        -0.1228
      2 C2          1.1686    2.0920    0.0021 C.ar      1 <0>        -0.1199
      3 C3          2.3774    1.4261   -0.0130 C.ar      1 <0>        -0.0938
      4 C4          2.4023    0.0328   -0.0207 C.ar      1 <0>        -0.0006
      5 C5          1.2051   -0.6804   -0.0131 C.ar      1 <0>        -0.1131
      6 C6          0.0021   -0.0041    0.0020 C.ar      1 <0>        -0.1199
      7 C7          3.6986   -0.6887   -0.0375 C.2       1 <0>         0.0408
      8 C8          3.8653   -2.0370   -0.0519 C.2       1 <0>        -0.0305
      9 N1          5.2128   -2.2658   -0.0648 N.pl3     1 <0>        -0.5582
     10 C9          5.8277   -1.0627   -0.0579 C.2       1 <0>         0.2124
     11 N2          4.9233   -0.1240   -0.0471 N.2       1 <0>        -0.4613
     12 H1          5.6478   -3.1327   -0.0763 H         1 <0>         0.4210
     13 C10         7.3184   -0.8416   -0.0676 C.3       1 <0>         0.2509
     14 C11         7.6922    0.0631   -1.2435 C.3       1 <0>        -0.0805
     15 C12         9.1633    0.3841   -1.1825 C.ar      1 <0>        -0.0937
     16 C13         9.6003    1.4934   -0.4829 C.ar      1 <0>        -0.1082
     17 C14        10.9497    1.7878   -0.4269 C.ar      1 <0>        -0.1094
     18 C15        11.8623    0.9727   -1.0701 C.ar      1 <0>        -0.0386
     19 C16        11.4254   -0.1371   -1.7689 C.ar      1 <0>        -0.0806
     20 C17        10.0763   -0.4340   -1.8213 C.ar      1 <0>        -0.0686
     21 C18        13.3333    1.2943   -1.0099 C.3       1 <0>        -0.5481
     22 C19        13.9774    1.2942   -2.4241 C.3       1 <0>        -0.1439
     23 C20        15.3265    0.6480   -2.3263 C.2       1 <0>         0.4320
     24 O1         16.2338    0.8281   -3.3086 O.3       1 <0>        -0.6643
     25 N3         15.6180   -0.0755   -1.3091 N.2       1 <0>        -0.9156
     26 S1         14.3003   -0.0895   -0.2753 S.o2      1 <0>         2.4592
     27 O2         14.8086    0.2674    1.0028 O.2       1 <0>        -0.9884
     28 O3         13.6519   -1.3350   -0.4934 O.2       1 <0>        -0.9732
     29 N4          8.0022   -2.1298   -0.2059 N.pl3     1 <0>        -1.1189
     30 S2          9.4443   -2.3888    0.5658 S.o2      1 <0>         2.6670
     31 O4          9.8340   -3.7211    0.2620 O.2       1 <0>        -0.9450
     32 O5         10.2683   -1.2686    0.2733 O.2       1 <0>        -0.8872
     33 C21         9.1245   -2.3401    2.2978 C.ar      1 <0>        -0.6525
     34 C22         9.2023   -1.1409    2.9815 C.ar      1 <0>        -0.0290
     35 C23         8.9517   -1.1012    4.3403 C.ar      1 <0>        -0.1070
     36 C24         8.6233   -2.2607    5.0172 C.ar      1 <0>        -0.1000
     37 C25         8.5451   -3.4621    4.3336 C.ar      1 <0>         0.0785
     38 C26         8.7904   -3.4995    2.9712 C.ar      1 <0>        -0.0588
     39 F1          8.2247   -4.5961    4.9943 F         1 <0>        -0.1350
     40 H2         -0.9603    1.9042    0.0260 H         1 <0>         0.1203
     41 H3          1.1482    3.1718    0.0078 H         1 <0>         0.1232
     42 H4          3.3023    1.9837   -0.0192 H         1 <0>         0.1318
     43 H5          1.2185   -1.7603   -0.0194 H         1 <0>         0.1206
     44 H6         -0.9264   -0.5557    0.0083 H         1 <0>         0.1223
     45 H7          3.0846   -2.7832   -0.0530 H         1 <0>         0.1815
     46 H8          7.6214   -0.3678    0.8661 H         1 <0>         0.1125
     47 H9          7.4704   -0.4483   -2.1802 H         1 <0>         0.0793
     48 H10         7.1162    0.9868   -1.1887 H         1 <0>         0.0983
     49 H11         8.8873    2.1302    0.0197 H         1 <0>         0.1155
     50 H12        11.2910    2.6549    0.1191 H         1 <0>         0.1156
     51 H13        12.1384   -0.7737   -2.2717 H         1 <0>         0.1250
     52 H14         9.7353   -1.3031   -2.3642 H         1 <0>         0.1076
     53 H15        13.5138    2.2327   -0.4856 H         1 <0>         0.1361
     54 H16        13.3492    0.7313   -3.1143 H         1 <0>         0.1038
     55 H17        14.0855    2.3192   -2.7789 H         1 <0>         0.1046
     56 H18         7.6102   -2.8311   -0.7495 H         1 <0>         0.4140
     57 H19         9.4595   -0.2345    2.4536 H         1 <0>         0.1533
     58 H20         9.0128   -0.1639    4.8733 H         1 <0>         0.1458
     59 H21         8.4282   -2.2296    6.0789 H         1 <0>         0.1438
     60 H22         8.7254   -4.4354    2.4361 H         1 <0>         0.1496
@<TRIPOS>BOND
     1    1    6 ar
     2    1    2 ar
     3    1   40 1
     4    2    3 ar
     5    2   41 1
     6    3    4 ar
     7    3   42 1
     8    4    5 ar
     9    4    7 1
    10    5    6 ar
    11    5   43 1
    12    6   44 1
    13    7   11 1
    14    7    8 2
    15    8   45 1
    16    8    9 1
    17    9   10 1
    18    9   12 1
    19   10   13 1
    20   10   11 2
    21   13   14 1
    22   13   29 1
    23   13   46 1
    24   14   15 1
    25   14   47 1
    26   14   48 1
    27   15   20 ar
    28   15   16 ar
    29   16   17 ar
    30   16   49 1
    31   17   18 ar
    32   17   50 1
    33   18   19 ar
    34   18   21 1
    35   19   20 ar
    36   19   51 1
    37   20   52 1
    38   21   26 1
    39   21   22 1
    40   21   53 1
    41   22   23 1
    42   22   54 1
    43   22   55 1
    44   23   24 1
    45   23   25 2
    46   25   26 1
    47   26   27 2
    48   26   28 2
    49   29   30 1
    50   29   56 1
    51   30   31 2
    52   30   32 2
    53   30   33 1
    54   33   38 ar
    55   33   34 ar
    56   34   35 ar
    57   34   57 1
    58   35   36 ar
    59   35   58 1
    60   36   37 ar
    61   36   59 1
    62   37   38 ar
    63   37   39 1
    64   38   60 1
@<TRIPOS>MOLECULE
CHEMBL253282__2
   60    64     0     0     0
SMALL
USER_CHARGES

@<TRIPOS>ATOM
      1 C1         -0.0167    1.3793    0.0096 C.ar      1 <0>        -0.1211
      2 C2          1.1684    2.0932    0.0021 C.ar      1 <0>        -0.1109
      3 C3          2.3774    1.4287   -0.0129 C.ar      1 <0>        -0.1024
      4 C4          2.4032    0.0336   -0.0206 C.ar      1 <0>        -0.0085
      5 C5          1.2044   -0.6805   -0.0130 C.ar      1 <0>        -0.1224
      6 C6          0.0021   -0.0041    0.0020 C.ar      1 <0>        -0.1104
      7 C7          3.6958   -0.6852   -0.0373 C.2       1 <0>         0.0124
      8 C8          4.9372   -0.1282   -0.0406 C.2       1 <0>         0.0084
      9 N1          5.8333   -1.1217   -0.0563 N.2       1 <0>        -0.4701
     10 C9          5.2120   -2.2703   -0.0630 C.2       1 <0>         0.2174
     11 N2          3.8796   -2.0494   -0.0463 N.pl3     1 <0>        -0.5559
     12 H1          3.1834   -2.7248   -0.0436 H         1 <0>         0.4179
     13 C10         5.8746   -3.6237   -0.0812 C.3       1 <0>         0.2510
     14 C11         6.8336   -3.7060   -1.2706 C.3       1 <0>        -0.0812
     15 C12         7.5865   -5.0104   -1.2195 C.ar      1 <0>        -0.0941
     16 C13         8.7857   -5.0900   -0.5365 C.ar      1 <0>        -0.1072
     17 C14         9.4764   -6.2865   -0.4896 C.ar      1 <0>        -0.1101
     18 C15         8.9676   -7.4036   -1.1252 C.ar      1 <0>        -0.0276
     19 C16         7.7679   -7.3243   -1.8074 C.ar      1 <0>        -0.0820
     20 C17         7.0751   -6.1289   -1.8507 C.ar      1 <0>        -0.0647
     21 C18         9.7210   -8.7078   -1.0749 C.3       1 <0>        -0.5470
     22 C19         8.8038   -9.8818   -0.6332 C.3       1 <0>        -0.1460
     23 C20         8.2824  -10.5601   -1.8642 C.2       1 <0>         0.4335
     24 O1          7.2064  -11.3702   -1.7839 O.3       1 <0>        -0.6613
     25 N3          8.8588  -10.3699   -2.9932 N.2       1 <0>        -0.9115
     26 S1         10.1390   -9.3148   -2.7620 S.o2      1 <0>         2.4529
     27 O2          9.9712   -8.2867   -3.7285 O.2       1 <0>        -0.9724
     28 O3         11.3065  -10.1244   -2.7365 O.2       1 <0>        -0.9965
     29 N4          4.8527   -4.6661   -0.2048 N.pl3     1 <0>        -1.1181
     30 S2          5.0542   -6.1185    0.5648 S.o2      1 <0>         2.6664
     31 O4          3.8988   -6.8941    0.2775 O.2       1 <0>        -0.9466
     32 O5          6.3674   -6.5640    0.2542 O.2       1 <0>        -0.8905
     33 C21         5.0277   -5.7981    2.2973 C.ar      1 <0>        -0.6521
     34 C22         6.2035   -5.5082    2.9645 C.ar      1 <0>        -0.0283
     35 C23         6.1843   -5.2567    4.3235 C.ar      1 <0>        -0.1076
     36 C24         4.9893   -5.2952    5.0172 C.ar      1 <0>        -0.1001
     37 C25         3.8115   -5.5854    4.3502 C.ar      1 <0>         0.0789
     38 C26         3.8312   -5.8312    2.9875 C.ar      1 <0>        -0.0586
     39 F1          2.6430   -5.6238    5.0272 F         1 <0>        -0.1347
     40 H2         -0.9604    1.9041    0.0260 H         1 <0>         0.1241
     41 H3          1.1470    3.1730    0.0078 H         1 <0>         0.1276
     42 H4          3.3018    1.9872   -0.0191 H         1 <0>         0.1297
     43 H5          1.2178   -1.7604   -0.0193 H         1 <0>         0.1152
     44 H6         -0.9265   -0.5556    0.0079 H         1 <0>         0.1253
     45 H7          5.1598    0.9286   -0.0321 H         1 <0>         0.1763
     46 H8          6.4311   -3.7683    0.8448 H         1 <0>         0.1132
     47 H9          6.2660   -3.6503   -2.1995 H         1 <0>         0.0803
     48 H10         7.5398   -2.8769   -1.2260 H         1 <0>         0.0997
     49 H11         9.1833   -4.2172   -0.0399 H         1 <0>         0.1151
     50 H12        10.4137   -6.3485    0.0434 H         1 <0>         0.1138
     51 H13         7.3705   -8.1970   -2.3043 H         1 <0>         0.1193
     52 H14         6.1360   -6.0679   -2.3806 H         1 <0>         0.1072
     53 H15        10.6072   -8.6307   -0.4451 H         1 <0>         0.1350
     54 H16         9.3769  -10.5919   -0.0369 H         1 <0>         0.1016
     55 H17         7.9710   -9.4966   -0.0449 H         1 <0>         0.1105
     56 H18         4.0581   -4.5056   -0.7374 H         1 <0>         0.4146
     57 H19         7.1378   -5.4786    2.4235 H         1 <0>         0.1539
     58 H20         7.1033   -5.0303    4.8437 H         1 <0>         0.1453
     59 H21         4.9746   -5.0993    6.0791 H         1 <0>         0.1435
     60 H22         2.9123   -6.0533    2.4653 H         1 <0>         0.1495
@<TRIPOS>BOND
     1    1    6 ar
     2    1    2 ar
     3    1   40 1
     4    2    3 ar
     5    2   41 1
     6    3    4 ar
     7    3   42 1
     8    4    5 ar
     9    4    7 1
    10    5    6 ar
    11    5   43 1
    12    6   44 1
    13    7   11 1
    14    7    8 2
    15    8    9 1
    16    8   45 1
    17    9   10 2
    18   10   11 1
    19   10   13 1
    20   11   12 1
    21   13   14 1
    22   13   29 1
    23   13   46 1
    24   14   15 1
    25   14   47 1
    26   14   48 1
    27   15   20 ar
    28   15   16 ar
    29   16   17 ar
    30   16   49 1
    31   17   18 ar
    32   17   50 1
    33   18   19 ar
    34   18   21 1
    35   19   20 ar
    36   19   51 1
    37   20   52 1
    38   21   26 1
    39   21   22 1
    40   21   53 1
    41   22   23 1
    42   22   54 1
    43   22   55 1
    44   23   24 1
    45   23   25 2
    46   25   26 1
    47   26   27 2
    48   26   28 2
    49   29   30 1
    50   29   56 1
    51   30   31 2
    52   30   32 2
    53   30   33 1
    54   33   38 ar
    55   33   34 ar
    56   34   35 ar
    57   34   57 1
    58   35   36 ar
    59   35   58 1
    60   36   37 ar
    61   36   59 1
    62   37   38 ar
    63   37   39 1
    64   38   60 1
@<TRIPOS>MOLECULE
CHEMBL253282__3
   60    64     0     0     0
SMALL
USER_CHARGES

@<TRIPOS>ATOM
      1 C1         -0.0167    1.3790    0.0096 C.ar      1 <0>        -0.1229
      2 C2          1.1686    2.0920    0.0021 C.ar      1 <0>        -0.1198
      3 C3          2.3774    1.4261   -0.0130 C.ar      1 <0>        -0.0936
      4 C4          2.4023    0.0328   -0.0207 C.ar      1 <0>        -0.0005
      5 C5          1.2051   -0.6804   -0.0131 C.ar      1 <0>        -0.1131
      6 C6          0.0021   -0.0041    0.0020 C.ar      1 <0>        -0.1200
      7 C7          3.6986   -0.6887   -0.0375 C.2       1 <0>         0.0408
      8 C8          3.8653   -2.0370   -0.0519 C.2       1 <0>        -0.0306
      9 N1          5.2128   -2.2658   -0.0648 N.pl3     1 <0>        -0.5584
     10 C9          5.8277   -1.0627   -0.0579 C.2       1 <0>         0.2125
     11 N2          4.9233   -0.1240   -0.0471 N.2       1 <0>        -0.4609
     12 H1          5.6478   -3.1327   -0.0763 H         1 <0>         0.4209
     13 C10         7.3184   -0.8416   -0.0676 C.3       1 <0>         0.2518
     14 C11         7.6922    0.0631   -1.2435 C.3       1 <0>        -0.0812
     15 C12         9.1633    0.3841   -1.1825 C.ar      1 <0>        -0.0939
     16 C13         9.6003    1.4934   -0.4829 C.ar      1 <0>        -0.1073
     17 C14        10.9497    1.7878   -0.4269 C.ar      1 <0>        -0.1101
     18 C15        11.8623    0.9727   -1.0701 C.ar      1 <0>        -0.0276
     19 C16        11.4254   -0.1371   -1.7689 C.ar      1 <0>        -0.0819
     20 C17        10.0763   -0.4340   -1.8213 C.ar      1 <0>        -0.0646
     21 C18        13.3333    1.2943   -1.0099 C.3       1 <0>        -0.5471
     22 C19        14.1722    0.0583   -0.5816 C.3       1 <0>        -0.1459
     23 C20        14.6650   -0.6277   -1.8200 C.2       1 <0>         0.4336
     24 O1         15.1102   -1.8997   -1.7551 O.3       1 <0>        -0.6612
     25 N3         14.6628   -0.0055   -2.9408 N.2       1 <0>        -0.9117
     26 S1         14.0449    1.5311   -2.6913 S.o2      1 <0>         2.4530
     27 O2         13.0180    1.6961   -3.6595 O.2       1 <0>        -0.9724
     28 O3         15.1704    2.3976   -2.6498 O.2       1 <0>        -0.9966
     29 N4          8.0022   -2.1298   -0.2059 N.pl3     1 <0>        -1.1175
     30 S2          9.4443   -2.3888    0.5658 S.o2      1 <0>         2.6668
     31 O4          9.8340   -3.7211    0.2620 O.2       1 <0>        -0.9467
     32 O5         10.2683   -1.2686    0.2733 O.2       1 <0>        -0.8908
     33 C21         9.1245   -2.3401    2.2978 C.ar      1 <0>        -0.6520
     34 C22         9.2023   -1.1409    2.9815 C.ar      1 <0>        -0.0281
     35 C23         8.9517   -1.1012    4.3403 C.ar      1 <0>        -0.1077
     36 C24         8.6233   -2.2607    5.0172 C.ar      1 <0>        -0.1002
     37 C25         8.5451   -3.4621    4.3336 C.ar      1 <0>         0.0786
     38 C26         8.7904   -3.4995    2.9712 C.ar      1 <0>        -0.0585
     39 F1          8.2247   -4.5961    4.9943 F         1 <0>        -0.1348
     40 H2         -0.9603    1.9042    0.0260 H         1 <0>         0.1202
     41 H3          1.1482    3.1718    0.0078 H         1 <0>         0.1232
     42 H4          3.3023    1.9837   -0.0192 H         1 <0>         0.1319
     43 H5          1.2185   -1.7603   -0.0194 H         1 <0>         0.1205
     44 H6         -0.9264   -0.5557    0.0083 H         1 <0>         0.1222
     45 H7          3.0846   -2.7832   -0.0530 H         1 <0>         0.1815
     46 H8          7.6214   -0.3678    0.8661 H         1 <0>         0.1122
     47 H9          7.4704   -0.4483   -2.1802 H         1 <0>         0.0801
     48 H10         7.1162    0.9868   -1.1887 H         1 <0>         0.0988
     49 H11         8.8873    2.1302    0.0197 H         1 <0>         0.1147
     50 H12        11.2910    2.6549    0.1191 H         1 <0>         0.1136
     51 H13        12.1384   -0.7737   -2.2717 H         1 <0>         0.1193
     52 H14         9.7353   -1.3031   -2.3642 H         1 <0>         0.1072
     53 H15        13.5263    2.1536   -0.3677 H         1 <0>         0.1350
     54 H16        15.0203    0.3809    0.0223 H         1 <0>         0.1016
     55 H17        13.5503   -0.6262   -0.0048 H         1 <0>         0.1105
     56 H18         7.6102   -2.8311   -0.7495 H         1 <0>         0.4149
     57 H19         9.4595   -0.2345    2.4536 H         1 <0>         0.1537
     58 H20         9.0128   -0.1639    4.8733 H         1 <0>         0.1451
     59 H21         8.4282   -2.2296    6.0789 H         1 <0>         0.1434
     60 H22         8.7254   -4.4354    2.4361 H         1 <0>         0.1498
@<TRIPOS>BOND
     1    1    6 ar
     2    1    2 ar
     3    1   40 1
     4    2    3 ar
     5    2   41 1
     6    3    4 ar
     7    3   42 1
     8    4    5 ar
     9    4    7 1
    10    5    6 ar
    11    5   43 1
    12    6   44 1
    13    7   11 1
    14    7    8 2
    15    8   45 1
    16    8    9 1
    17    9   10 1
    18    9   12 1
    19   10   13 1
    20   10   11 2
    21   13   14 1
    22   13   29 1
    23   13   46 1
    24   14   15 1
    25   14   47 1
    26   14   48 1
    27   15   20 ar
    28   15   16 ar
    29   16   17 ar
    30   16   49 1
    31   17   18 ar
    32   17   50 1
    33   18   19 ar
    34   18   21 1
    35   19   20 ar
    36   19   51 1
    37   20   52 1
    38   21   26 1
    39   21   22 1
    40   21   53 1
    41   22   23 1
    42   22   54 1
    43   22   55 1
    44   23   24 1
    45   23   25 2
    46   25   26 1
    47   26   27 2
    48   26   28 2
    49   29   30 1
    50   29   56 1
    51   30   31 2
    52   30   32 2
    53   30   33 1
    54   33   38 ar
    55   33   34 ar
    56   34   35 ar
    57   34   57 1
    58   35   36 ar
    59   35   58 1
    60   36   37 ar
    61   36   59 1
    62   37   38 ar
    63   37   39 1
    64   38   60 1
@<TRIPOS>MOLECULE
CHEMBL253282__4
   60    64     0     0     0
SMALL
USER_CHARGES

@<TRIPOS>ATOM
      1 C1         -0.0167    1.3793    0.0096 C.ar      1 <0>        -0.1222
      2 C2          1.1684    2.0932    0.0021 C.ar      1 <0>        -0.1119
      3 C3          2.3774    1.4287   -0.0129 C.ar      1 <0>        -0.1028
      4 C4          2.4032    0.0336   -0.0206 C.ar      1 <0>        -0.0072
      5 C5          1.2044   -0.6805   -0.0130 C.ar      1 <0>        -0.1201
      6 C6          0.0021   -0.0041    0.0020 C.ar      1 <0>        -0.1112
      7 C7          3.6958   -0.6852   -0.0373 C.2       1 <0>         0.0175
      8 C8          4.9372   -0.1282   -0.0406 C.2       1 <0>         0.0019
      9 N1          5.8333   -1.1217   -0.0563 N.2       1 <0>        -0.4663
     10 C9          5.2120   -2.2703   -0.0630 C.2       1 <0>         0.2033
     11 N2          3.8796   -2.0494   -0.0463 N.pl3     1 <0>        -0.5473
     12 H1          3.1834   -2.7248   -0.0436 H         1 <0>         0.4208
     13 C10         5.8746   -3.6237   -0.0812 C.3       1 <0>         0.2512
     14 C11         6.8336   -3.7060   -1.2706 C.3       1 <0>        -0.0702
     15 C12         7.4033   -5.0982   -1.3611 C.ar      1 <0>        -0.0952
     16 C13         8.5693   -5.4129   -0.6886 C.ar      1 <0>        -0.1112
     17 C14         9.0919   -6.6900   -0.7716 C.ar      1 <0>        -0.1113
     18 C15         8.4482   -7.6525   -1.5268 C.ar      1 <0>        -0.0471
     19 C16         7.2817   -7.3380   -2.1985 C.ar      1 <0>        -0.0984
     20 C17         6.7568   -6.0621   -2.1120 C.ar      1 <0>        -0.1082
     21 C18         9.0185   -9.0444   -1.6180 C.3       1 <0>        -0.5541
     22 C19         9.1335   -9.5201   -3.0929 C.3       1 <0>        -0.1436
     23 C20         8.7293  -10.9623   -3.1548 C.2       1 <0>         0.4311
     24 O1          9.0660  -11.7122   -4.2247 O.3       1 <0>        -0.6595
     25 N3          8.0640  -11.4830   -2.1907 N.2       1 <0>        -0.9127
     26 S1          7.8200  -10.3085   -1.0219 S.o2      1 <0>         2.4522
     27 O2          8.2557  -10.8852    0.2016 O.2       1 <0>        -0.9680
     28 O3          6.4820   -9.8628   -1.1959 O.2       1 <0>        -0.9804
     29 N4          6.6225   -3.8181    1.1634 N.pl3     1 <0>        -1.0969
     30 S2          5.9223   -4.6166    2.4340 S.o2      1 <0>         2.6933
     31 O4          6.8951   -4.6655    3.4687 O.2       1 <0>        -0.9520
     32 O5          4.6393   -4.0354    2.6215 O.2       1 <0>        -0.9547
     33 C21         5.6514   -6.2796    1.9186 C.ar      1 <0>        -0.6601
     34 C22         4.4627   -6.6276    1.3040 C.ar      1 <0>        -0.0395
     35 C23         4.2488   -7.9318    0.8991 C.ar      1 <0>        -0.1056
     36 C24         5.2229   -8.8897    1.1086 C.ar      1 <0>        -0.0578
     37 C25         6.4134   -8.5424    1.7239 C.ar      1 <0>         0.0683
     38 C26         6.6291   -7.2342    2.1236 C.ar      1 <0>        -0.0508
     39 F1          7.3661   -9.4779    1.9296 F         1 <0>        -0.1112
     40 H2         -0.9604    1.9041    0.0260 H         1 <0>         0.1233
     41 H3          1.1470    3.1730    0.0078 H         1 <0>         0.1268
     42 H4          3.3018    1.9872   -0.0191 H         1 <0>         0.1291
     43 H5          1.2178   -1.7604   -0.0193 H         1 <0>         0.1169
     44 H6         -0.9265   -0.5556    0.0079 H         1 <0>         0.1249
     45 H7          5.1598    0.9286   -0.0321 H         1 <0>         0.1741
     46 H8          5.1143   -4.3993   -0.1732 H         1 <0>         0.0993
     47 H9          6.2943   -3.4737   -2.1889 H         1 <0>         0.0899
     48 H10         7.6440   -2.9900   -1.1342 H         1 <0>         0.0972
     49 H11         9.0722   -4.6610   -0.0987 H         1 <0>         0.1236
     50 H12        10.0033   -6.9357   -0.2468 H         1 <0>         0.1241
     51 H13         6.7790   -8.0899   -2.7887 H         1 <0>         0.1337
     52 H14         5.8434   -5.8175   -2.6338 H         1 <0>         0.1227
     53 H15         9.9725   -9.1181   -1.0960 H         1 <0>         0.1378
     54 H16         8.4726   -8.9256   -3.7236 H         1 <0>         0.1038
     55 H17        10.1627   -9.4116   -3.4350 H         1 <0>         0.1060
     56 H18         7.5278   -3.4790    1.2432 H         1 <0>         0.4264
     57 H19         3.7007   -5.8800    1.1405 H         1 <0>         0.1378
     58 H20         3.3199   -8.2025    0.4192 H         1 <0>         0.1415
     59 H21         5.0552   -9.9088    0.7928 H         1 <0>         0.1500
     60 H22         7.5593   -6.9611    2.5996 H         1 <0>         0.1490
@<TRIPOS>BOND
     1    1    6 ar
     2    1    2 ar
     3    1   40 1
     4    2    3 ar
     5    2   41 1
     6    3    4 ar
     7    3   42 1
     8    4    5 ar
     9    4    7 1
    10    5    6 ar
    11    5   43 1
    12    6   44 1
    13    7   11 1
    14    7    8 2
    15    8    9 1
    16    8   45 1
    17    9   10 2
    18   10   11 1
    19   10   13 1
    20   11   12 1
    21   13   14 1
    22   13   29 1
    23   13   46 1
    24   14   15 1
    25   14   47 1
    26   14   48 1
    27   15   20 ar
    28   15   16 ar
    29   16   17 ar
    30   16   49 1
    31   17   18 ar
    32   17   50 1
    33   18   19 ar
    34   18   21 1
    35   19   20 ar
    36   19   51 1
    37   20   52 1
    38   21   26 1
    39   21   22 1
    40   21   53 1
    41   22   23 1
    42   22   54 1
    43   22   55 1
    44   23   24 1
    45   23   25 2
    46   25   26 1
    47   26   27 2
    48   26   28 2
    49   29   30 1
    50   29   56 1
    51   30   31 2
    52   30   32 2
    53   30   33 1
    54   33   38 ar
    55   33   34 ar
    56   34   35 ar
    57   34   57 1
    58   35   36 ar
    59   35   58 1
    60   36   37 ar
    61   36   59 1
    62   37   38 ar
    63   37   39 1
    64   38   60 1
@<TRIPOS>MOLECULE
CHEMBL253282__5
   60    64     0     0     0
SMALL
USER_CHARGES

@<TRIPOS>ATOM
      1 C1         -0.0167    1.3790    0.0096 C.ar      1 <0>        -0.1248
      2 C2          1.1686    2.0920    0.0021 C.ar      1 <0>        -0.1201
      3 C3          2.3774    1.4261   -0.0130 C.ar      1 <0>        -0.0954
      4 C4          2.4023    0.0328   -0.0207 C.ar      1 <0>         0.0028
      5 C5          1.2051   -0.6804   -0.0131 C.ar      1 <0>        -0.1139
      6 C6          0.0021   -0.0041    0.0020 C.ar      1 <0>        -0.1195
      7 C7          3.6986   -0.6887   -0.0375 C.2       1 <0>         0.0327
      8 C8          3.8653   -2.0370   -0.0519 C.2       1 <0>        -0.0233
      9 N1          5.2128   -2.2658   -0.0648 N.pl3     1 <0>        -0.5501
     10 C9          5.8277   -1.0627   -0.0579 C.2       1 <0>         0.1981
     11 N2          4.9233   -0.1240   -0.0471 N.2       1 <0>        -0.4562
     12 H1          5.6478   -3.1327   -0.0763 H         1 <0>         0.4239
     13 C10         7.3184   -0.8416   -0.0676 C.3       1 <0>         0.2519
     14 C11         7.6922    0.0631   -1.2435 C.3       1 <0>        -0.0703
     15 C12         9.1919    0.1848   -1.3267 C.ar      1 <0>        -0.0951
     16 C13         9.8430    1.1913   -0.6382 C.ar      1 <0>        -0.1113
     17 C14        11.2187    1.3029   -0.7145 C.ar      1 <0>        -0.1112
     18 C15        11.9434    0.4078   -1.4789 C.ar      1 <0>        -0.0471
     19 C16        11.2925   -0.5992   -2.1667 C.ar      1 <0>        -0.0983
     20 C17         9.9172   -0.7135   -2.0870 C.ar      1 <0>        -0.1081
     21 C18        13.4431    0.5301   -1.5629 C.3       1 <0>        -0.5542
     22 C19        13.9368    0.5153   -3.0363 C.3       1 <0>        -0.1435
     23 C20        15.1887   -0.3065   -3.1045 C.2       1 <0>         0.4311
     24 O1         16.0094   -0.1988   -4.1699 O.3       1 <0>        -0.6594
     25 N3         15.4795   -1.1113   -2.1500 N.2       1 <0>        -0.9126
     26 S1         14.2818   -1.0032   -0.9841 S.o2      1 <0>         2.4523
     27 O2         14.9588   -0.7795    0.2451 O.2       1 <0>        -0.9680
     28 O3         13.4520   -2.1405   -1.1767 O.2       1 <0>        -0.9803
     29 N4          7.7257   -0.2048    1.1873 N.pl3     1 <0>        -1.0971
     30 S2          8.2694   -1.1312    2.4476 S.o2      1 <0>         2.6938
     31 O4          8.6072   -0.2331    3.4957 O.2       1 <0>        -0.9523
     32 O5          7.3257   -2.1799    2.6175 O.2       1 <0>        -0.9551
     33 C21         9.7738   -1.8869    1.9276 C.ar      1 <0>        -0.6600
     34 C22         9.7473   -3.1167    1.2964 C.ar      1 <0>        -0.0393
     35 C23        10.9266   -3.7108    0.8879 C.ar      1 <0>        -0.1056
     36 C24        12.1341   -3.0760    1.1106 C.ar      1 <0>        -0.0579
     37 C25        12.1619   -1.8446    1.7425 C.ar      1 <0>         0.0682
     38 C26        10.9792   -1.2476    2.1458 C.ar      1 <0>        -0.0508
     39 F1         13.3416   -1.2234    1.9611 F         1 <0>        -0.1113
     40 H2         -0.9603    1.9042    0.0260 H         1 <0>         0.1195
     41 H3          1.1482    3.1718    0.0078 H         1 <0>         0.1221
     42 H4          3.3023    1.9837   -0.0192 H         1 <0>         0.1307
     43 H5          1.2185   -1.7603   -0.0194 H         1 <0>         0.1210
     44 H6         -0.9264   -0.5557    0.0083 H         1 <0>         0.1219
     45 H7          3.0846   -2.7832   -0.0530 H         1 <0>         0.1809
     46 H8          7.8271   -1.8001   -0.1705 H         1 <0>         0.1000
     47 H9          7.3107   -0.3680   -2.1691 H         1 <0>         0.0897
     48 H10         7.2552    1.0506   -1.0954 H         1 <0>         0.0963
     49 H11         9.2767    1.8906   -0.0409 H         1 <0>         0.1232
     50 H12        11.7272    2.0897   -0.1771 H         1 <0>         0.1239
     51 H13        11.8587   -1.2984   -2.7643 H         1 <0>         0.1337
     52 H14         9.4090   -1.5025   -2.6214 H         1 <0>         0.1227
     53 H15        13.8007    1.4097   -1.0276 H         1 <0>         0.1377
     54 H16        13.1722    0.0744   -3.6759 H         1 <0>         0.1037
     55 H17        14.1469    1.5334   -3.3639 H         1 <0>         0.1059
     56 H18         7.6770    0.7596    1.2799 H         1 <0>         0.4261
     57 H19         8.8043   -3.6138    1.1226 H         1 <0>         0.1382
     58 H20        10.9046   -4.6714    0.3949 H         1 <0>         0.1415
     59 H21        13.0555   -3.5406    0.7920 H         1 <0>         0.1499
     60 H22        10.9994   -0.2849    2.6350 H         1 <0>         0.1488
@<TRIPOS>BOND
     1    1    6 ar
     2    1    2 ar
     3    1   40 1
     4    2    3 ar
     5    2   41 1
     6    3    4 ar
     7    3   42 1
     8    4    5 ar
     9    4    7 1
    10    5    6 ar
    11    5   43 1
    12    6   44 1
    13    7   11 1
    14    7    8 2
    15    8   45 1
    16    8    9 1
    17    9   10 1
    18    9   12 1
    19   10   13 1
    20   10   11 2
    21   13   14 1
    22   13   29 1
    23   13   46 1
    24   14   15 1
    25   14   47 1
    26   14   48 1
    27   15   20 ar
    28   15   16 ar
    29   16   17 ar
    30   16   49 1
    31   17   18 ar
    32   17   50 1
    33   18   19 ar
    34   18   21 1
    35   19   20 ar
    36   19   51 1
    37   20   52 1
    38   21   26 1
    39   21   22 1
    40   21   53 1
    41   22   23 1
    42   22   54 1
    43   22   55 1
    44   23   24 1
    45   23   25 2
    46   25   26 1
    47   26   27 2
    48   26   28 2
    49   29   30 1
    50   29   56 1
    51   30   31 2
    52   30   32 2
    53   30   33 1
    54   33   38 ar
    55   33   34 ar
    56   34   35 ar
    57   34   57 1
    58   35   36 ar
    59   35   58 1
    60   36   37 ar
    61   36   59 1
    62   37   38 ar
    63   37   39 1
    64   38   60 1
@<TRIPOS>MOLECULE
CHEMBL253282__6
   60    64     0     0     0
SMALL
USER_CHARGES

@<TRIPOS>ATOM
      1 C1         -0.0167    1.3793    0.0096 C.ar      1 <0>        -0.1223
      2 C2          1.1684    2.0932    0.0021 C.ar      1 <0>        -0.1119
      3 C3          2.3774    1.4287   -0.0129 C.ar      1 <0>        -0.1028
      4 C4          2.4032    0.0336   -0.0206 C.ar      1 <0>        -0.0071
      5 C5          1.2044   -0.6805   -0.0130 C.ar      1 <0>        -0.1201
      6 C6          0.0021   -0.0041    0.0020 C.ar      1 <0>        -0.1112
      7 C7          3.6958   -0.6852   -0.0373 C.2       1 <0>         0.0175
      8 C8          4.9372   -0.1282   -0.0406 C.2       1 <0>         0.0022
      9 N1          5.8333   -1.1217   -0.0563 N.2       1 <0>        -0.4657
     10 C9          5.2120   -2.2703   -0.0630 C.2       1 <0>         0.2031
     11 N2          3.8796   -2.0494   -0.0463 N.pl3     1 <0>        -0.5475
     12 H1          3.1834   -2.7248   -0.0436 H         1 <0>         0.4206
     13 C10         5.8746   -3.6237   -0.0812 C.3       1 <0>         0.2517
     14 C11         6.8336   -3.7060   -1.2706 C.3       1 <0>        -0.0705
     15 C12         7.4033   -5.0982   -1.3611 C.ar      1 <0>        -0.0961
     16 C13         8.5693   -5.4129   -0.6886 C.ar      1 <0>        -0.1103
     17 C14         9.0919   -6.6900   -0.7716 C.ar      1 <0>        -0.1117
     18 C15         8.4482   -7.6525   -1.5268 C.ar      1 <0>        -0.0354
     19 C16         7.2817   -7.3380   -2.1985 C.ar      1 <0>        -0.1012
     20 C17         6.7568   -6.0621   -2.1120 C.ar      1 <0>        -0.1041
     21 C18         9.0185   -9.0444   -1.6180 C.3       1 <0>        -0.5521
     22 C19         7.9445  -10.1242   -1.3093 C.3       1 <0>        -0.1435
     23 C20         7.3572  -10.5884   -2.6081 C.2       1 <0>         0.4338
     24 O1          6.1809  -11.2491   -2.6190 O.3       1 <0>        -0.6599
     25 N3          7.9729  -10.3569   -3.7084 N.2       1 <0>        -0.9076
     26 S1          9.3792   -9.5164   -3.3606 S.o2      1 <0>         2.4552
     27 O2          9.3674   -8.3765   -4.2091 O.2       1 <0>        -0.9702
     28 O3         10.4267  -10.4746   -3.4216 O.2       1 <0>        -0.9918
     29 N4          6.6225   -3.8181    1.1634 N.pl3     1 <0>        -1.0953
     30 S2          5.9223   -4.6166    2.4340 S.o2      1 <0>         2.6930
     31 O4          6.8951   -4.6655    3.4687 O.2       1 <0>        -0.9516
     32 O5          4.6393   -4.0354    2.6215 O.2       1 <0>        -0.9531
     33 C21         5.6514   -6.2796    1.9186 C.ar      1 <0>        -0.6530
     34 C22         4.4627   -6.6276    1.3040 C.ar      1 <0>        -0.0385
     35 C23         4.2488   -7.9318    0.8991 C.ar      1 <0>        -0.1031
     36 C24         5.2229   -8.8897    1.1086 C.ar      1 <0>        -0.0890
     37 C25         6.4134   -8.5424    1.7239 C.ar      1 <0>         0.0906
     38 C26         6.6291   -7.2342    2.1236 C.ar      1 <0>        -0.0469
     39 F1          7.3661   -9.4779    1.9296 F         1 <0>        -0.1284
     40 H2         -0.9604    1.9041    0.0260 H         1 <0>         0.1232
     41 H3          1.1470    3.1730    0.0078 H         1 <0>         0.1268
     42 H4          3.3018    1.9872   -0.0191 H         1 <0>         0.1291
     43 H5          1.2178   -1.7604   -0.0193 H         1 <0>         0.1168
     44 H6         -0.9265   -0.5556    0.0079 H         1 <0>         0.1248
     45 H7          5.1598    0.9286   -0.0321 H         1 <0>         0.1742
     46 H8          5.1143   -4.3993   -0.1732 H         1 <0>         0.0985
     47 H9          6.2943   -3.4737   -2.1889 H         1 <0>         0.0908
     48 H10         7.6440   -2.9900   -1.1342 H         1 <0>         0.0976
     49 H11         9.0722   -4.6610   -0.0987 H         1 <0>         0.1228
     50 H12        10.0033   -6.9357   -0.2468 H         1 <0>         0.1226
     51 H13         6.7790   -8.0899   -2.7887 H         1 <0>         0.1277
     52 H14         5.8434   -5.8175   -2.6338 H         1 <0>         0.1227
     53 H15         9.8964   -9.1567   -0.9818 H         1 <0>         0.1384
     54 H16         8.4068  -10.9657   -0.7932 H         1 <0>         0.1048
     55 H17         7.1613   -9.6956   -0.6839 H         1 <0>         0.1013
     56 H18         7.5278   -3.4790    1.2432 H         1 <0>         0.4271
     57 H19         3.7007   -5.8800    1.1405 H         1 <0>         0.1401
     58 H20         3.3199   -8.2025    0.4192 H         1 <0>         0.1442
     59 H21         5.0552   -9.9088    0.7928 H         1 <0>         0.1502
     60 H22         7.5593   -6.9611    2.5996 H         1 <0>         0.1501
@<TRIPOS>BOND
     1    1    6 ar
     2    1    2 ar
     3    1   40 1
     4    2    3 ar
     5    2   41 1
     6    3    4 ar
     7    3   42 1
     8    4    5 ar
     9    4    7 1
    10    5    6 ar
    11    5   43 1
    12    6   44 1
    13    7   11 1
    14    7    8 2
    15    8    9 1
    16    8   45 1
    17    9   10 2
    18   10   11 1
    19   10   13 1
    20   11   12 1
    21   13   14 1
    22   13   29 1
    23   13   46 1
    24   14   15 1
    25   14   47 1
    26   14   48 1
    27   15   20 ar
    28   15   16 ar
    29   16   17 ar
    30   16   49 1
    31   17   18 ar
    32   17   50 1
    33   18   19 ar
    34   18   21 1
    35   19   20 ar
    36   19   51 1
    37   20   52 1
    38   21   26 1
    39   21   22 1
    40   21   53 1
    41   22   23 1
    42   22   54 1
    43   22   55 1
    44   23   24 1
    45   23   25 2
    46   25   26 1
    47   26   27 2
    48   26   28 2
    49   29   30 1
    50   29   56 1
    51   30   31 2
    52   30   32 2
    53   30   33 1
    54   33   38 ar
    55   33   34 ar
    56   34   35 ar
    57   34   57 1
    58   35   36 ar
    59   35   58 1
    60   36   37 ar
    61   36   59 1
    62   37   38 ar
    63   37   39 1
    64   38   60 1
@<TRIPOS>MOLECULE
CHEMBL253282__7
   60    64     0     0     0
SMALL
USER_CHARGES

@<TRIPOS>ATOM
      1 C1         -0.0167    1.3790    0.0096 C.ar      1 <0>        -0.1247
      2 C2          1.1686    2.0920    0.0021 C.ar      1 <0>        -0.1200
      3 C3          2.3774    1.4261   -0.0130 C.ar      1 <0>        -0.0952
      4 C4          2.4023    0.0328   -0.0207 C.ar      1 <0>         0.0028
      5 C5          1.2051   -0.6804   -0.0131 C.ar      1 <0>        -0.1140
      6 C6          0.0021   -0.0041    0.0020 C.ar      1 <0>        -0.1196
      7 C7          3.6986   -0.6887   -0.0375 C.2       1 <0>         0.0329
      8 C8          3.8653   -2.0370   -0.0519 C.2       1 <0>        -0.0232
      9 N1          5.2128   -2.2658   -0.0648 N.pl3     1 <0>        -0.5503
     10 C9          5.8277   -1.0627   -0.0579 C.2       1 <0>         0.1979
     11 N2          4.9233   -0.1240   -0.0471 N.2       1 <0>        -0.4556
     12 H1          5.6478   -3.1327   -0.0763 H         1 <0>         0.4237
     13 C10         7.3184   -0.8416   -0.0676 C.3       1 <0>         0.2524
     14 C11         7.6922    0.0631   -1.2435 C.3       1 <0>        -0.0705
     15 C12         9.1919    0.1848   -1.3267 C.ar      1 <0>        -0.0959
     16 C13         9.8430    1.1913   -0.6382 C.ar      1 <0>        -0.1104
     17 C14        11.2187    1.3029   -0.7145 C.ar      1 <0>        -0.1117
     18 C15        11.9434    0.4078   -1.4789 C.ar      1 <0>        -0.0353
     19 C16        11.2925   -0.5992   -2.1667 C.ar      1 <0>        -0.1012
     20 C17         9.9172   -0.7135   -2.0870 C.ar      1 <0>        -0.1041
     21 C18        13.4431    0.5301   -1.5629 C.3       1 <0>        -0.5522
     22 C19        14.1451   -0.8249   -1.2697 C.3       1 <0>        -0.1434
     23 C20        14.4141   -1.5077   -2.5768 C.2       1 <0>         0.4337
     24 O1         14.6870   -2.8288   -2.6045 O.3       1 <0>        -0.6600
     25 N3         14.3845   -0.8361   -3.6683 N.2       1 <0>        -0.9076
     26 S1         14.0088    0.7541   -3.3005 S.o2      1 <0>         2.4553
     27 O2         12.9223    1.1000   -4.1485 O.2       1 <0>        -0.9702
     28 O3         15.2398    1.4623   -3.3473 O.2       1 <0>        -0.9918
     29 N4          7.7257   -0.2048    1.1873 N.pl3     1 <0>        -1.0956
     30 S2          8.2694   -1.1312    2.4476 S.o2      1 <0>         2.6936
     31 O4          8.6072   -0.2331    3.4957 O.2       1 <0>        -0.9518
     32 O5          7.3257   -2.1799    2.6175 O.2       1 <0>        -0.9535
     33 C21         9.7738   -1.8869    1.9276 C.ar      1 <0>        -0.6530
     34 C22         9.7473   -3.1167    1.2964 C.ar      1 <0>        -0.0384
     35 C23        10.9266   -3.7108    0.8879 C.ar      1 <0>        -0.1032
     36 C24        12.1341   -3.0760    1.1106 C.ar      1 <0>        -0.0891
     37 C25        12.1619   -1.8446    1.7425 C.ar      1 <0>         0.0905
     38 C26        10.9792   -1.2476    2.1458 C.ar      1 <0>        -0.0470
     39 F1         13.3416   -1.2234    1.9611 F         1 <0>        -0.1285
     40 H2         -0.9603    1.9042    0.0260 H         1 <0>         0.1195
     41 H3          1.1482    3.1718    0.0078 H         1 <0>         0.1221
     42 H4          3.3023    1.9837   -0.0192 H         1 <0>         0.1308
     43 H5          1.2185   -1.7603   -0.0194 H         1 <0>         0.1210
     44 H6         -0.9264   -0.5557    0.0083 H         1 <0>         0.1218
     45 H7          3.0846   -2.7832   -0.0530 H         1 <0>         0.1809
     46 H8          7.8271   -1.8001   -0.1705 H         1 <0>         0.0992
     47 H9          7.3107   -0.3680   -2.1691 H         1 <0>         0.0906
     48 H10         7.2552    1.0506   -1.0954 H         1 <0>         0.0967
     49 H11         9.2767    1.8906   -0.0409 H         1 <0>         0.1225
     50 H12        11.7272    2.0897   -0.1771 H         1 <0>         0.1224
     51 H13        11.8587   -1.2984   -2.7643 H         1 <0>         0.1277
     52 H14         9.4090   -1.5025   -2.6214 H         1 <0>         0.1227
     53 H15        13.8140    1.3239   -0.9146 H         1 <0>         0.1383
     54 H16        15.0851   -0.6466   -0.7476 H         1 <0>         0.1048
     55 H17        13.4967   -1.4495   -0.6551 H         1 <0>         0.1013
     56 H18         7.6770    0.7596    1.2799 H         1 <0>         0.4268
     57 H19         8.8043   -3.6138    1.1226 H         1 <0>         0.1405
     58 H20        10.9046   -4.6714    0.3949 H         1 <0>         0.1443
     59 H21        13.0555   -3.5406    0.7920 H         1 <0>         0.1501
     60 H22        10.9994   -0.2849    2.6350 H         1 <0>         0.1500
@<TRIPOS>BOND
     1    1    6 ar
     2    1    2 ar
     3    1   40 1
     4    2    3 ar
     5    2   41 1
     6    3    4 ar
     7    3   42 1
     8    4    5 ar
     9    4    7 1
    10    5    6 ar
    11    5   43 1
    12    6   44 1
    13    7   11 1
    14    7    8 2
    15    8   45 1
    16    8    9 1
    17    9   10 1
    18    9   12 1
    19   10   13 1
    20   10   11 2
    21   13   14 1
    22   13   29 1
    23   13   46 1
    24   14   15 1
    25   14   47 1
    26   14   48 1
    27   15   20 ar
    28   15   16 ar
    29   16   17 ar
    30   16   49 1
    31   17   18 ar
    32   17   50 1
    33   18   19 ar
    34   18   21 1
    35   19   20 ar
    36   19   51 1
    37   20   52 1
    38   21   26 1
    39   21   22 1
    40   21   53 1
    41   22   23 1
    42   22   54 1
    43   22   55 1
    44   23   24 1
    45   23   25 2
    46   25   26 1
    47   26   27 2
    48   26   28 2
    49   29   30 1
    50   29   56 1
    51   30   31 2
    52   30   32 2
    53   30   33 1
    54   33   38 ar
    55   33   34 ar
    56   34   35 ar
    57   34   57 1
    58   35   36 ar
    59   35   58 1
    60   36   37 ar
    61   36   59 1
    62   37   38 ar
    63   37   39 1
    64   38   60 1
@<TRIPOS>MOLECULE
CHEMBL592245
   59    63     0     0     0
SMALL
USER_CHARGES

@<TRIPOS>ATOM
      1 C1         -0.0184    1.5028    0.0103 C.3       1 <0>        -0.1360
      2 C2          0.0021   -0.0041    0.0020 C.ar      1 <0>        -0.0639
      3 C3          0.0057   -0.6889   -1.1975 C.ar      1 <0>        -0.1101
      4 C4          0.0240   -2.0714   -1.2060 C.ar      1 <0>        -0.0653
      5 C5          0.0391   -2.7733   -0.0143 C.ar      1 <0>        -0.1077
      6 C6          0.0360   -2.0949    1.1884 C.ar      1 <0>        -0.0906
      7 C7          0.0230   -0.7057    1.2005 C.ar      1 <0>         0.1524
      8 N1          0.0251   -0.0163    2.4152 N.pl3     1 <0>        -0.9424
      9 C8          1.1809    0.3645    3.2387 C.3       1 <0>         0.0440
     10 C9          0.7572    1.0967    4.4708 C.2       1 <0>         0.5155
     11 O1          1.5506    1.5043    5.2925 O.2       1 <0>        -0.4579
     12 N2         -0.5667    1.2694    4.5989 N.am      1 <0>        -1.0428
     13 S1         -1.2845    0.5736    3.2663 S.o2      1 <0>         2.7545
     14 O2         -1.8530    1.6222    2.4939 O.2       1 <0>        -0.9386
     15 O3         -2.0288   -0.5461    3.7263 O.2       1 <0>        -0.9399
     16 C10         0.0269   -2.8152   -2.5167 C.3       1 <0>        -0.0760
     17 C11         1.4703   -3.0478   -2.9678 C.3       1 <0>         0.2390
     18 H1          2.0203   -3.5582   -2.1772 H         1 <0>         0.1295
     19 C12         1.4767   -3.8967   -4.2129 C.2       1 <0>         0.2589
     20 N3          2.0844   -3.5600   -5.3825 N.pl3     1 <0>        -0.5873
     21 H2          2.5812   -2.7457   -5.5587 H         1 <0>         0.4163
     22 C13         1.8632   -4.5922   -6.2722 C.ar      1 <0>         0.0551
     23 C14         2.2242   -4.8248   -7.5924 C.ar      1 <0>        -0.1131
     24 C15         1.8322   -5.9922   -8.2119 C.ar      1 <0>        -0.0967
     25 C16         1.0798   -6.9346   -7.5251 C.ar      1 <0>        -0.1271
     26 C17         0.7155   -6.7228   -6.2257 C.ar      1 <0>        -0.0611
     27 C18         1.1019   -5.5469   -5.5771 C.ar      1 <0>         0.0484
     28 N4          0.9067   -5.0610   -4.3242 N.2       1 <0>        -0.4715
     29 N5          2.1068   -1.7593   -3.2520 N.pl3     1 <0>        -1.1172
     30 S2          3.7135   -1.5379   -2.9179 S.o2      1 <0>         2.6844
     31 O4          4.0343   -0.2146   -3.3243 O.2       1 <0>        -0.9465
     32 O5          3.9192   -1.9977   -1.5891 O.2       1 <0>        -0.9388
     33 C19         4.6189   -2.6218   -3.9715 C.ar      1 <0>        -0.6888
     34 C20         4.9138   -3.9058   -3.5531 C.ar      1 <0>        -0.0135
     35 C21         5.6241   -4.7562   -4.3797 C.ar      1 <0>        -0.1306
     36 C22         6.0391   -4.3226   -5.6250 C.ar      1 <0>        -0.0544
     37 C23         5.7434   -3.0388   -6.0438 C.ar      1 <0>        -0.1357
     38 C24         5.0294   -2.1899   -5.2189 C.ar      1 <0>        -0.0340
     39 H3          1.0042    1.8801    0.0026 H         1 <0>         0.0760
     40 H4         -0.5455    1.8639   -0.8728 H         1 <0>         0.0743
     41 H5         -0.5286    1.8543    0.9071 H         1 <0>         0.0852
     42 H6         -0.0060   -0.1439   -2.1298 H         1 <0>         0.1308
     43 H7          0.0529   -3.8531   -0.0245 H         1 <0>         0.1373
     44 H8          0.0474   -2.6436    2.1185 H         1 <0>         0.1363
     45 H9          1.7244   -0.5350    3.5278 H         1 <0>         0.1390
     46 H10         1.8406    1.0045    2.6528 H         1 <0>         0.1375
     47 H11        -1.0209    1.7186    5.3289 H         1 <0>         0.4511
     48 H12        -0.4736   -3.7752   -2.3907 H         1 <0>         0.1118
     49 H13        -0.4987   -2.2273   -3.2692 H         1 <0>         0.0896
     50 H14         2.8090   -4.0944   -8.1317 H         1 <0>         0.1211
     51 H15         2.1122   -6.1746   -9.2390 H         1 <0>         0.1305
     52 H16         0.7790   -7.8445   -8.0230 H         1 <0>         0.1304
     53 H17         0.1296   -7.4627   -5.7007 H         1 <0>         0.1305
     54 H18         1.5871   -1.0358   -3.6358 H         1 <0>         0.4247
     55 H19         4.5896   -4.2446   -2.5802 H         1 <0>         0.1399
     56 H20         5.8551   -5.7591   -4.0525 H         1 <0>         0.1344
     57 H21         6.5946   -4.9867   -6.2705 H         1 <0>         0.1329
     58 H22         6.0679   -2.6999   -7.0166 H         1 <0>         0.1351
     59 H23         4.7952   -1.1881   -5.5476 H         1 <0>         0.1412
@<TRIPOS>BOND
     1    1    2 1
     2    1   39 1
     3    1   40 1
     4    1   41 1
     5    2    7 ar
     6    2    3 ar
     7    3    4 ar
     8    3   42 1
     9    4    5 ar
    10    4   16 1
    11    5    6 ar
    12    5   43 1
    13    6    7 ar
    14    6   44 1
    15    7    8 1
    16    8   13 1
    17    8    9 1
    18    9   10 1
    19    9   45 1
    20    9   46 1
    21   10   11 2
    22   10   12 am
    23   12   13 1
    24   12   47 1
    25   13   14 2
    26   13   15 2
    27   16   17 1
    28   16   48 1
    29   16   49 1
    30   17   18 1
    31   17   19 1
    32   17   29 1
    33   19   28 2
    34   19   20 1
    35   20   21 1
    36   20   22 1
    37   22   27 ar
    38   22   23 ar
    39   23   24 ar
    40   23   50 1
    41   24   25 ar
    42   24   51 1
    43   25   26 ar
    44   25   52 1
    45   26   27 ar
    46   26   53 1
    47   27   28 1
    48   29   30 1
    49   29   54 1
    50   30   31 2
    51   30   32 2
    52   30   33 1
    53   33   38 ar
    54   33   34 ar
    55   34   35 ar
    56   34   55 1
    57   35   36 ar
    58   35   56 1
    59   36   37 ar
    60   36   57 1
    61   37   38 ar
    62   37   58 1
    63   38   59 1
@<TRIPOS>MOLECULE
CHEMBL592245__1
   58    62     0     0     0
SMALL
USER_CHARGES

@<TRIPOS>ATOM
      1 C1         -0.0184    1.5028    0.0103 C.3       1 <0>        -0.1337
      2 C2          0.0021   -0.0041    0.0020 C.ar      1 <0>        -0.0784
      3 C3          0.0057   -0.6889   -1.1975 C.ar      1 <0>        -0.1100
      4 C4          0.0240   -2.0714   -1.2060 C.ar      1 <0>        -0.0925
      5 C5          0.0391   -2.7733   -0.0143 C.ar      1 <0>        -0.1083
      6 C6          0.0360   -2.0949    1.1884 C.ar      1 <0>        -0.1067
      7 C7          0.0230   -0.7057    1.2005 C.ar      1 <0>         0.1939
      8 N1          0.0251   -0.0163    2.4152 N.pl3     1 <0>        -0.9690
      9 C8          1.1755    0.3701    3.2487 C.3       1 <0>         0.0401
     10 C9          0.7268    1.0993    4.4737 C.2       1 <0>         0.4510
     11 O1          1.6030    1.5554    5.3928 O.3       1 <0>        -0.6435
     12 N2         -0.5370    1.2673    4.6016 N.2       1 <0>        -0.9322
     13 S1         -1.2772    0.5796    3.2768 S.o2      1 <0>         2.6421
     14 O2         -1.8457    1.6332    2.5113 O.2       1 <0>        -1.0048
     15 O3         -2.0236   -0.5362    3.7428 O.2       1 <0>        -1.0075
     16 C10         0.0269   -2.8152   -2.5167 C.3       1 <0>        -0.0671
     17 C11         1.4703   -3.0478   -2.9678 C.3       1 <0>         0.2361
     18 H1          2.0203   -3.5582   -2.1772 H         1 <0>         0.1297
     19 C12         1.4767   -3.8967   -4.2129 C.2       1 <0>         0.2672
     20 N3          2.0844   -3.5600   -5.3825 N.pl3     1 <0>        -0.5879
     21 H2          2.5812   -2.7457   -5.5587 H         1 <0>         0.4164
     22 C13         1.8632   -4.5922   -6.2722 C.ar      1 <0>         0.0530
     23 C14         2.2242   -4.8248   -7.5924 C.ar      1 <0>        -0.1117
     24 C15         1.8322   -5.9922   -8.2119 C.ar      1 <0>        -0.1010
     25 C16         1.0798   -6.9346   -7.5251 C.ar      1 <0>        -0.1294
     26 C17         0.7155   -6.7228   -6.2257 C.ar      1 <0>        -0.0615
     27 C18         1.1019   -5.5469   -5.5771 C.ar      1 <0>         0.0498
     28 N4          0.9067   -5.0610   -4.3242 N.2       1 <0>        -0.4732
     29 N5          2.1068   -1.7593   -3.2520 N.pl3     1 <0>        -1.1141
     30 S2          3.7135   -1.5379   -2.9179 S.o2      1 <0>         2.6821
     31 O4          4.0343   -0.2146   -3.3243 O.2       1 <0>        -0.9467
     32 O5          3.9192   -1.9977   -1.5891 O.2       1 <0>        -0.9332
     33 C19         4.6189   -2.6218   -3.9715 C.ar      1 <0>        -0.6867
     34 C20         4.9138   -3.9058   -3.5531 C.ar      1 <0>        -0.0127
     35 C21         5.6241   -4.7562   -4.3797 C.ar      1 <0>        -0.1314
     36 C22         6.0391   -4.3226   -5.6250 C.ar      1 <0>        -0.0576
     37 C23         5.7434   -3.0388   -6.0438 C.ar      1 <0>        -0.1375
     38 C24         5.0294   -2.1899   -5.2189 C.ar      1 <0>        -0.0341
     39 H3          1.0042    1.8801    0.0026 H         1 <0>         0.0689
     40 H4         -0.5455    1.8639   -0.8728 H         1 <0>         0.0640
     41 H5         -0.5286    1.8543    0.9071 H         1 <0>         0.0958
     42 H6         -0.0060   -0.1439   -2.1298 H         1 <0>         0.1220
     43 H7          0.0529   -3.8531   -0.0245 H         1 <0>         0.1284
     44 H8          0.0474   -2.6436    2.1185 H         1 <0>         0.1311
     45 H9          1.7205   -0.5262    3.5448 H         1 <0>         0.1000
     46 H10         1.8368    1.0148    2.6700 H         1 <0>         0.0991
     47 H11        -0.4736   -3.7752   -2.3907 H         1 <0>         0.1065
     48 H12        -0.4987   -2.2273   -3.2692 H         1 <0>         0.0841
     49 H13         2.8090   -4.0944   -8.1317 H         1 <0>         0.1200
     50 H14         2.1122   -6.1746   -9.2390 H         1 <0>         0.1284
     51 H15         0.7790   -7.8445   -8.0230 H         1 <0>         0.1284
     52 H16         0.1296   -7.4627   -5.7007 H         1 <0>         0.1298
     53 H17         1.5871   -1.0358   -3.6358 H         1 <0>         0.4247
     54 H18         4.5896   -4.2446   -2.5802 H         1 <0>         0.1410
     55 H19         5.8551   -5.7591   -4.0525 H         1 <0>         0.1334
     56 H20         6.5946   -4.9867   -6.2705 H         1 <0>         0.1310
     57 H21         6.0679   -2.6999   -7.0166 H         1 <0>         0.1333
     58 H22         4.7952   -1.1881   -5.5476 H         1 <0>         0.1410
@<TRIPOS>BOND
     1    1    2 1
     2    1   39 1
     3    1   40 1
     4    1   41 1
     5    2    7 ar
     6    2    3 ar
     7    3    4 ar
     8    3   42 1
     9    4    5 ar
    10    4   16 1
    11    5    6 ar
    12    5   43 1
    13    6    7 ar
    14    6   44 1
    15    7    8 1
    16    8   13 1
    17    8    9 1
    18    9   10 1
    19    9   45 1
    20    9   46 1
    21   10   11 1
    22   10   12 2
    23   12   13 1
    24   13   14 2
    25   13   15 2
    26   16   17 1
    27   16   47 1
    28   16   48 1
    29   17   18 1
    30   17   19 1
    31   17   29 1
    32   19   28 2
    33   19   20 1
    34   20   21 1
    35   20   22 1
    36   22   27 ar
    37   22   23 ar
    38   23   24 ar
    39   23   49 1
    40   24   25 ar
    41   24   50 1
    42   25   26 ar
    43   25   51 1
    44   26   27 ar
    45   26   52 1
    46   27   28 1
    47   29   30 1
    48   29   53 1
    49   30   31 2
    50   30   32 2
    51   30   33 1
    52   33   38 ar
    53   33   34 ar
    54   34   35 ar
    55   34   54 1
    56   35   36 ar
    57   35   55 1
    58   36   37 ar
    59   36   56 1
    60   37   38 ar
    61   37   57 1
    62   38   58 1
@<TRIPOS>MOLECULE
CHEMBL404319
   63    67     0     0     0
SMALL
USER_CHARGES

@<TRIPOS>ATOM
      1 C1         -0.0167    1.3781    0.0096 C.ar      1 <0>        -0.1216
      2 C2          1.1709    2.0855    0.0021 C.ar      1 <0>        -0.1174
      3 C3          2.3773    1.4107   -0.0130 C.ar      1 <0>        -0.1085
      4 C4          2.3960    0.0285   -0.0201 C.ar      1 <0>        -0.0812
      5 C5          1.2084   -0.6789   -0.0117 C.ar      1 <0>        -0.1162
      6 C6          0.0021   -0.0041    0.0020 C.ar      1 <0>        -0.1174
      7 C7          3.7112   -0.7071   -0.0376 C.3       1 <0>        -0.0052
      8 C8          4.1644   -0.9594    1.3773 C.2       1 <0>        -0.0146
      9 C9          4.8495   -0.1083    2.1647 C.2       1 <0>        -0.0117
     10 N1          5.0567   -0.7105    3.3451 N.2       1 <0>        -0.4711
     11 C10         4.5261   -1.9025    3.3192 C.2       1 <0>         0.2068
     12 N2          3.9539   -2.0955    2.1113 N.pl3     1 <0>        -0.5564
     13 H1          3.4833   -2.8914    1.8178 H         1 <0>         0.4160
     14 C11         4.5439   -2.8967    4.4516 C.3       1 <0>         0.2519
     15 C12         5.9881   -3.1381    4.8955 C.3       1 <0>        -0.0801
     16 C13         5.9981   -4.0361    6.1057 C.ar      1 <0>        -0.0932
     17 C14         5.9383   -3.4883    7.3734 C.ar      1 <0>        -0.1084
     18 C15         5.9476   -4.3120    8.4835 C.ar      1 <0>        -0.1095
     19 C16         6.0161   -5.6836    8.3258 C.ar      1 <0>        -0.0391
     20 C17         6.0749   -6.2315    7.0581 C.ar      1 <0>        -0.0806
     21 C18         6.0614   -5.4080    5.9479 C.ar      1 <0>        -0.0689
     22 C19         6.0271   -6.5816    9.5360 C.3       1 <0>        -0.5479
     23 C20         7.1920   -7.6082    9.4762 C.3       1 <0>        -0.1439
     24 C21         6.6829   -8.9269    9.9755 C.2       1 <0>         0.4321
     25 O1          7.5525   -9.8847   10.3587 O.3       1 <0>        -0.6644
     26 N3          5.4211   -9.1439   10.0386 N.2       1 <0>        -0.9158
     27 S1          4.6213   -7.7701    9.5112 S.o2      1 <0>         2.4593
     28 O2          3.6757   -7.4607   10.5257 O.2       1 <0>        -0.9885
     29 O3          4.2140   -8.0483    8.1785 O.2       1 <0>        -0.9733
     30 N4          3.9537   -4.1598    4.0018 N.pl3     1 <0>        -1.1187
     31 S2          3.0602   -5.0767    5.0522 S.o2      1 <0>         2.6669
     32 O4          2.6093   -6.2086    4.3210 O.2       1 <0>        -0.9458
     33 O5          3.8277   -5.1948    6.2422 O.2       1 <0>        -0.8876
     34 C22         1.6256   -4.1423    5.4689 C.ar      1 <0>        -0.6521
     35 C23         1.6506   -3.2841    6.5527 C.ar      1 <0>        -0.0288
     36 C24         0.5260   -2.5505    6.8808 C.ar      1 <0>        -0.1070
     37 C25        -0.6251   -2.6744    6.1258 C.ar      1 <0>        -0.1001
     38 C26        -0.6513   -3.5333    5.0404 C.ar      1 <0>         0.0789
     39 C27         0.4779   -4.2632    4.7090 C.ar      1 <0>        -0.0586
     40 F1         -1.7760   -3.6555    4.3020 F         1 <0>        -0.1352
     41 H2         -0.9591    1.9053    0.0259 H         1 <0>         0.1209
     42 H3          1.1563    3.1654    0.0076 H         1 <0>         0.1226
     43 H4          3.3051    1.9634   -0.0196 H         1 <0>         0.1241
     44 H5          1.2231   -1.7588   -0.0176 H         1 <0>         0.1168
     45 H6         -0.9258   -0.5567    0.0082 H         1 <0>         0.1213
     46 H7          3.5884   -1.6586   -0.5549 H         1 <0>         0.0809
     47 H8          4.4573   -0.1052   -0.5563 H         1 <0>         0.0997
     48 H9          5.1750    0.8850    1.8932 H         1 <0>         0.1700
     49 H10         3.9672   -2.5040    5.2890 H         1 <0>         0.1106
     50 H11         6.5424   -3.6130    4.0861 H         1 <0>         0.0789
     51 H12         6.4552   -2.1857    5.1460 H         1 <0>         0.0983
     52 H13         5.8848   -2.4166    7.4966 H         1 <0>         0.1155
     53 H14         5.9016   -3.8839    9.4740 H         1 <0>         0.1155
     54 H15         6.1288   -7.3031    6.9349 H         1 <0>         0.1249
     55 H16         6.1036   -5.8362    4.9573 H         1 <0>         0.1075
     56 H17         6.0475   -6.0033   10.4598 H         1 <0>         0.1361
     57 H18         7.5374   -7.7130    8.4477 H         1 <0>         0.1038
     58 H19         8.0140   -7.2689   10.1065 H         1 <0>         0.1046
     59 H20         4.0862   -4.4591    3.0887 H         1 <0>         0.4136
     60 H21         2.5494   -3.1872    7.1436 H         1 <0>         0.1531
     61 H22         0.5467   -1.8805    7.7276 H         1 <0>         0.1456
     62 H23        -1.5039   -2.1016    6.3828 H         1 <0>         0.1435
     63 H24         0.4600   -4.9303    3.8598 H         1 <0>         0.1491
@<TRIPOS>BOND
     1    1    6 ar
     2    1    2 ar
     3    1   41 1
     4    2    3 ar
     5    2   42 1
     6    3    4 ar
     7    3   43 1
     8    4    5 ar
     9    4    7 1
    10    5    6 ar
    11    5   44 1
    12    6   45 1
    13    7    8 1
    14    7   46 1
    15    7   47 1
    16    8   12 1
    17    8    9 2
    18    9   10 1
    19    9   48 1
    20   10   11 2
    21   11   12 1
    22   11   14 1
    23   12   13 1
    24   14   15 1
    25   14   30 1
    26   14   49 1
    27   15   16 1
    28   15   50 1
    29   15   51 1
    30   16   21 ar
    31   16   17 ar
    32   17   18 ar
    33   17   52 1
    34   18   19 ar
    35   18   53 1
    36   19   20 ar
    37   19   22 1
    38   20   21 ar
    39   20   54 1
    40   21   55 1
    41   22   27 1
    42   22   23 1
    43   22   56 1
    44   23   24 1
    45   23   57 1
    46   23   58 1
    47   24   25 1
    48   24   26 2
    49   26   27 1
    50   27   28 2
    51   27   29 2
    52   30   31 1
    53   30   59 1
    54   31   32 2
    55   31   33 2
    56   31   34 1
    57   34   39 ar
    58   34   35 ar
    59   35   36 ar
    60   35   60 1
    61   36   37 ar
    62   36   61 1
    63   37   38 ar
    64   37   62 1
    65   38   39 ar
    66   38   40 1
    67   39   63 1
@<TRIPOS>MOLECULE
CHEMBL404319__1
   63    67     0     0     0
SMALL
USER_CHARGES

@<TRIPOS>ATOM
      1 C1         -0.0167    1.3781    0.0096 C.ar      1 <0>        -0.1253
      2 C2          1.1709    2.0855    0.0021 C.ar      1 <0>        -0.1203
      3 C3          2.3773    1.4107   -0.0130 C.ar      1 <0>        -0.0965
      4 C4          2.3960    0.0285   -0.0201 C.ar      1 <0>        -0.0709
      5 C5          1.2084   -0.6789   -0.0117 C.ar      1 <0>        -0.1167
      6 C6          0.0021   -0.0041    0.0020 C.ar      1 <0>        -0.1237
      7 C7          3.7112   -0.7071   -0.0376 C.3       1 <0>         0.0042
      8 C8          4.1644   -0.9594    1.3773 C.2       1 <0>         0.0133
      9 C9          4.4839   -2.1568    1.9043 C.2       1 <0>        -0.0484
     10 N1          4.8400   -1.9339    3.2071 N.pl3     1 <0>        -0.5609
     11 C10         4.7256   -0.6070    3.4310 C.2       1 <0>         0.2072
     12 N2          4.3260   -0.0300    2.3308 N.2       1 <0>        -0.4615
     13 H1          5.1218   -2.6038    3.8495 H         1 <0>         0.4182
     14 C11         5.0168    0.0922    4.7338 C.3       1 <0>         0.2519
     15 C12         6.0377    1.2069    4.4973 C.3       1 <0>        -0.0797
     16 C13         6.2369    1.9846    5.7727 C.ar      1 <0>        -0.0931
     17 C14         5.4403    3.0809    6.0453 C.ar      1 <0>        -0.1082
     18 C15         5.6230    3.7942    7.2152 C.ar      1 <0>        -0.1095
     19 C16         6.6021    3.4109    8.1127 C.ar      1 <0>        -0.0389
     20 C17         7.3981    2.3141    7.8404 C.ar      1 <0>        -0.0806
     21 C18         7.2125    1.5982    6.6725 C.ar      1 <0>        -0.0688
     22 C19         6.8019    4.1892    9.3876 C.3       1 <0>        -0.5479
     23 C20         8.2928    4.5754    9.5946 C.3       1 <0>        -0.1439
     24 C21         8.6262    4.4028   11.0459 C.2       1 <0>         0.4321
     25 O1          9.7260    4.9912   11.5602 O.3       1 <0>        -0.6644
     26 N3          7.8658    3.6964   11.7982 N.2       1 <0>        -0.9157
     27 S1          6.5932    3.1219   10.8732 S.o2      1 <0>         2.4593
     28 O2          5.4124    3.4662   11.5849 O.2       1 <0>        -0.9885
     29 O3          6.9115    1.7692   10.5764 O.2       1 <0>        -0.9732
     30 N4          5.5597   -0.8714    5.6945 N.pl3     1 <0>        -1.1185
     31 S2          5.1918   -0.7337    7.3032 S.o2      1 <0>         2.6669
     32 O4          5.8371   -1.8152    7.9615 O.2       1 <0>        -0.9458
     33 O5          5.4246    0.6224    7.6584 O.2       1 <0>        -0.8876
     34 C22         3.4587   -1.0067    7.4665 C.ar      1 <0>        -0.6520
     35 C23         2.5803    0.0574    7.3792 C.ar      1 <0>        -0.0286
     36 C24         1.2205   -0.1552    7.5071 C.ar      1 <0>        -0.1068
     37 C25         0.7374   -1.4321    7.7230 C.ar      1 <0>        -0.1001
     38 C26         1.6160   -2.4984    7.8106 C.ar      1 <0>         0.0784
     39 C27         2.9777   -2.2850    7.6762 C.ar      1 <0>        -0.0588
     40 F1          1.1451   -3.7468    8.0219 F         1 <0>        -0.1351
     41 H2         -0.9591    1.9053    0.0259 H         1 <0>         0.1175
     42 H3          1.1563    3.1654    0.0076 H         1 <0>         0.1200
     43 H4          3.3051    1.9634   -0.0196 H         1 <0>         0.1228
     44 H5          1.2231   -1.7588   -0.0176 H         1 <0>         0.1166
     45 H6         -0.9258   -0.5567    0.0082 H         1 <0>         0.1172
     46 H7          3.5884   -1.6586   -0.5549 H         1 <0>         0.0834
     47 H8          4.4573   -0.1052   -0.5563 H         1 <0>         0.0851
     48 H9          4.4629   -3.1099    1.3968 H         1 <0>         0.1770
     49 H10         4.0961    0.5207    5.1299 H         1 <0>         0.1102
     50 H11         6.9867    0.7704    4.1859 H         1 <0>         0.0786
     51 H12         5.6720    1.8751    3.7176 H         1 <0>         0.0978
     52 H13         4.6753    3.3803    5.3442 H         1 <0>         0.1152
     53 H14         5.0010    4.6511    7.4279 H         1 <0>         0.1154
     54 H15         8.1633    2.0149    8.5414 H         1 <0>         0.1248
     55 H16         7.8320    0.7390    6.4616 H         1 <0>         0.1074
     56 H17         6.1510    5.0626    9.4262 H         1 <0>         0.1360
     57 H18         8.9279    3.9263    8.9917 H         1 <0>         0.1038
     58 H19         8.4475    5.6141    9.3027 H         1 <0>         0.1045
     59 H20         6.1347   -1.5901    5.3883 H         1 <0>         0.4137
     60 H21         2.9569    1.0556    7.2113 H         1 <0>         0.1529
     61 H22         0.5353    0.6768    7.4388 H         1 <0>         0.1455
     62 H23        -0.3250   -1.5979    7.8236 H         1 <0>         0.1436
     63 H24         3.6638   -3.1166    7.7399 H         1 <0>         0.1494
@<TRIPOS>BOND
     1    1    6 ar
     2    1    2 ar
     3    1   41 1
     4    2    3 ar
     5    2   42 1
     6    3    4 ar
     7    3   43 1
     8    4    5 ar
     9    4    7 1
    10    5    6 ar
    11    5   44 1
    12    6   45 1
    13    7   46 1
    14    7   47 1
    15    7    8 1
    16    8   12 1
    17    8    9 2
    18    9   48 1
    19    9   10 1
    20   10   11 1
    21   10   13 1
    22   11   14 1
    23   11   12 2
    24   14   15 1
    25   14   30 1
    26   14   49 1
    27   15   16 1
    28   15   50 1
    29   15   51 1
    30   16   21 ar
    31   16   17 ar
    32   17   18 ar
    33   17   52 1
    34   18   19 ar
    35   18   53 1
    36   19   20 ar
    37   19   22 1
    38   20   21 ar
    39   20   54 1
    40   21   55 1
    41   22   27 1
    42   22   23 1
    43   22   56 1
    44   23   24 1
    45   23   57 1
    46   23   58 1
    47   24   25 1
    48   24   26 2
    49   26   27 1
    50   27   28 2
    51   27   29 2
    52   30   31 1
    53   30   59 1
    54   31   32 2
    55   31   33 2
    56   31   34 1
    57   34   39 ar
    58   34   35 ar
    59   35   36 ar
    60   35   60 1
    61   36   37 ar
    62   36   61 1
    63   37   38 ar
    64   37   62 1
    65   38   39 ar
    66   38   40 1
    67   39   63 1
@<TRIPOS>MOLECULE
CHEMBL404319__2
   63    67     0     0     0
SMALL
USER_CHARGES

@<TRIPOS>ATOM
      1 C1         -0.0167    1.3781    0.0096 C.ar      1 <0>        -0.1219
      2 C2          1.1709    2.0855    0.0021 C.ar      1 <0>        -0.1174
      3 C3          2.3773    1.4107   -0.0130 C.ar      1 <0>        -0.1084
      4 C4          2.3960    0.0285   -0.0201 C.ar      1 <0>        -0.0807
      5 C5          1.2084   -0.6789   -0.0117 C.ar      1 <0>        -0.1163
      6 C6          0.0021   -0.0041    0.0020 C.ar      1 <0>        -0.1176
      7 C7          3.7112   -0.7071   -0.0376 C.3       1 <0>        -0.0054
      8 C8          4.1644   -0.9594    1.3773 C.2       1 <0>        -0.0149
      9 C9          4.8495   -0.1083    2.1647 C.2       1 <0>        -0.0114
     10 N1          5.0567   -0.7105    3.3451 N.2       1 <0>        -0.4707
     11 C10         4.5261   -1.9025    3.3192 C.2       1 <0>         0.2068
     12 N2          3.9539   -2.0955    2.1113 N.pl3     1 <0>        -0.5566
     13 H1          3.4833   -2.8914    1.8178 H         1 <0>         0.4158
     14 C11         4.5439   -2.8967    4.4516 C.3       1 <0>         0.2529
     15 C12         5.9881   -3.1381    4.8955 C.3       1 <0>        -0.0808
     16 C13         5.9981   -4.0361    6.1057 C.ar      1 <0>        -0.0935
     17 C14         5.9383   -3.4883    7.3734 C.ar      1 <0>        -0.1076
     18 C15         5.9476   -4.3120    8.4835 C.ar      1 <0>        -0.1101
     19 C16         6.0161   -5.6836    8.3258 C.ar      1 <0>        -0.0281
     20 C17         6.0749   -6.2315    7.0581 C.ar      1 <0>        -0.0820
     21 C18         6.0614   -5.4080    5.9479 C.ar      1 <0>        -0.0648
     22 C19         6.0271   -6.5816    9.5360 C.3       1 <0>        -0.5468
     23 C20         4.9681   -7.7127    9.4189 C.3       1 <0>        -0.1461
     24 C21         5.6413   -8.9316    8.8636 C.2       1 <0>         0.4337
     25 O1          4.9021   -9.9296    8.3363 O.3       1 <0>        -0.6613
     26 N3          6.9195   -9.0251    8.8894 N.2       1 <0>        -0.9118
     27 S1          7.5375   -7.6331    9.5862 S.o2      1 <0>         2.4530
     28 O2          8.5220   -7.1527    8.6812 O.2       1 <0>        -0.9724
     29 O3          7.8683   -7.9846   10.9228 O.2       1 <0>        -0.9967
     30 N4          3.9537   -4.1598    4.0018 N.pl3     1 <0>        -1.1172
     31 S2          3.0602   -5.0767    5.0522 S.o2      1 <0>         2.6667
     32 O4          2.6093   -6.2086    4.3210 O.2       1 <0>        -0.9475
     33 O5          3.8277   -5.1948    6.2422 O.2       1 <0>        -0.8912
     34 C22         1.6256   -4.1423    5.4689 C.ar      1 <0>        -0.6515
     35 C23         1.6506   -3.2841    6.5527 C.ar      1 <0>        -0.0280
     36 C24         0.5260   -2.5505    6.8808 C.ar      1 <0>        -0.1077
     37 C25        -0.6251   -2.6744    6.1258 C.ar      1 <0>        -0.1002
     38 C26        -0.6513   -3.5333    5.0404 C.ar      1 <0>         0.0790
     39 C27         0.4779   -4.2632    4.7090 C.ar      1 <0>        -0.0583
     40 F1         -1.7760   -3.6555    4.3020 F         1 <0>        -0.1349
     41 H2         -0.9591    1.9053    0.0259 H         1 <0>         0.1208
     42 H3          1.1563    3.1654    0.0076 H         1 <0>         0.1226
     43 H4          3.3051    1.9634   -0.0196 H         1 <0>         0.1242
     44 H5          1.2231   -1.7588   -0.0176 H         1 <0>         0.1168
     45 H6         -0.9258   -0.5567    0.0082 H         1 <0>         0.1211
     46 H7          3.5884   -1.6586   -0.5549 H         1 <0>         0.0810
     47 H8          4.4573   -0.1052   -0.5563 H         1 <0>         0.0998
     48 H9          5.1750    0.8850    1.8932 H         1 <0>         0.1700
     49 H10         3.9672   -2.5040    5.2890 H         1 <0>         0.1104
     50 H11         6.5424   -3.6130    4.0861 H         1 <0>         0.0797
     51 H12         6.4552   -2.1857    5.1460 H         1 <0>         0.0987
     52 H13         5.8848   -2.4166    7.4966 H         1 <0>         0.1148
     53 H14         5.9016   -3.8839    9.4740 H         1 <0>         0.1136
     54 H15         6.1288   -7.3031    6.9349 H         1 <0>         0.1191
     55 H16         6.1036   -5.8362    4.9573 H         1 <0>         0.1071
     56 H17         5.9052   -6.0100   10.4561 H         1 <0>         0.1350
     57 H18         4.5579   -7.9358   10.4039 H         1 <0>         0.1016
     58 H19         4.1667   -7.3984    8.7503 H         1 <0>         0.1105
     59 H20         4.0862   -4.4591    3.0887 H         1 <0>         0.4145
     60 H21         2.5494   -3.1872    7.1436 H         1 <0>         0.1535
     61 H22         0.5467   -1.8805    7.7276 H         1 <0>         0.1449
     62 H23        -1.5039   -2.1016    6.3828 H         1 <0>         0.1431
     63 H24         0.4600   -4.9303    3.8598 H         1 <0>         0.1492
@<TRIPOS>BOND
     1    1    6 ar
     2    1    2 ar
     3    1   41 1
     4    2    3 ar
     5    2   42 1
     6    3    4 ar
     7    3   43 1
     8    4    5 ar
     9    4    7 1
    10    5    6 ar
    11    5   44 1
    12    6   45 1
    13    7    8 1
    14    7   46 1
    15    7   47 1
    16    8   12 1
    17    8    9 2
    18    9   10 1
    19    9   48 1
    20   10   11 2
    21   11   12 1
    22   11   14 1
    23   12   13 1
    24   14   15 1
    25   14   30 1
    26   14   49 1
    27   15   16 1
    28   15   50 1
    29   15   51 1
    30   16   21 ar
    31   16   17 ar
    32   17   18 ar
    33   17   52 1
    34   18   19 ar
    35   18   53 1
    36   19   20 ar
    37   19   22 1
    38   20   21 ar
    39   20   54 1
    40   21   55 1
    41   22   27 1
    42   22   23 1
    43   22   56 1
    44   23   24 1
    45   23   57 1
    46   23   58 1
    47   24   25 1
    48   24   26 2
    49   26   27 1
    50   27   28 2
    51   27   29 2
    52   30   31 1
    53   30   59 1
    54   31   32 2
    55   31   33 2
    56   31   34 1
    57   34   39 ar
    58   34   35 ar
    59   35   36 ar
    60   35   60 1
    61   36   37 ar
    62   36   61 1
    63   37   38 ar
    64   37   62 1
    65   38   39 ar
    66   38   40 1
    67   39   63 1
@<TRIPOS>MOLECULE
CHEMBL404319__3
   63    67     0     0     0
SMALL
USER_CHARGES

@<TRIPOS>ATOM
      1 C1         -0.0167    1.3781    0.0096 C.ar      1 <0>        -0.1256
      2 C2          1.1709    2.0855    0.0021 C.ar      1 <0>        -0.1202
      3 C3          2.3773    1.4107   -0.0130 C.ar      1 <0>        -0.0963
      4 C4          2.3960    0.0285   -0.0201 C.ar      1 <0>        -0.0704
      5 C5          1.2084   -0.6789   -0.0117 C.ar      1 <0>        -0.1168
      6 C6          0.0021   -0.0041    0.0020 C.ar      1 <0>        -0.1240
      7 C7          3.7112   -0.7071   -0.0376 C.3       1 <0>         0.0040
      8 C8          4.1644   -0.9594    1.3773 C.2       1 <0>         0.0134
      9 C9          4.4839   -2.1568    1.9043 C.2       1 <0>        -0.0485
     10 N1          4.8400   -1.9339    3.2071 N.pl3     1 <0>        -0.5611
     11 C10         4.7256   -0.6070    3.4310 C.2       1 <0>         0.2072
     12 N2          4.3260   -0.0300    2.3308 N.2       1 <0>        -0.4611
     13 H1          5.1218   -2.6038    3.8495 H         1 <0>         0.4181
     14 C11         5.0168    0.0922    4.7338 C.3       1 <0>         0.2528
     15 C12         6.0377    1.2069    4.4973 C.3       1 <0>        -0.0804
     16 C13         6.2369    1.9846    5.7727 C.ar      1 <0>        -0.0934
     17 C14         5.4403    3.0809    6.0453 C.ar      1 <0>        -0.1074
     18 C15         5.6230    3.7942    7.2152 C.ar      1 <0>        -0.1101
     19 C16         6.6021    3.4109    8.1127 C.ar      1 <0>        -0.0279
     20 C17         7.3981    2.3141    7.8404 C.ar      1 <0>        -0.0820
     21 C18         7.2125    1.5982    6.6725 C.ar      1 <0>        -0.0648
     22 C19         6.8019    4.1892    9.3876 C.3       1 <0>        -0.5469
     23 C20         6.8274    3.2558   10.6297 C.3       1 <0>        -0.1460
     24 C21         8.2564    2.9284   10.9427 C.2       1 <0>         0.4336
     25 O1          8.5498    1.8764   11.7349 O.3       1 <0>        -0.6612
     26 N3          9.1996    3.6480   10.4571 N.2       1 <0>        -0.9117
     27 S1          8.5147    4.8522    9.5158 S.o2      1 <0>         2.4529
     28 O2          9.1802    4.7875    8.2620 O.2       1 <0>        -0.9724
     29 O3          8.5462    6.0291   10.3115 O.2       1 <0>        -0.9967
     30 N4          5.5597   -0.8714    5.6945 N.pl3     1 <0>        -1.1171
     31 S2          5.1918   -0.7337    7.3032 S.o2      1 <0>         2.6666
     32 O4          5.8371   -1.8152    7.9615 O.2       1 <0>        -0.9474
     33 O5          5.4246    0.6224    7.6584 O.2       1 <0>        -0.8912
     34 C22         3.4587   -1.0067    7.4665 C.ar      1 <0>        -0.6515
     35 C23         2.5803    0.0574    7.3792 C.ar      1 <0>        -0.0278
     36 C24         1.2205   -0.1552    7.5071 C.ar      1 <0>        -0.1076
     37 C25         0.7374   -1.4321    7.7230 C.ar      1 <0>        -0.1002
     38 C26         1.6160   -2.4984    7.8106 C.ar      1 <0>         0.0786
     39 C27         2.9777   -2.2850    7.6762 C.ar      1 <0>        -0.0585
     40 F1          1.1451   -3.7468    8.0219 F         1 <0>        -0.1349
     41 H2         -0.9591    1.9053    0.0259 H         1 <0>         0.1173
     42 H3          1.1563    3.1654    0.0076 H         1 <0>         0.1200
     43 H4          3.3051    1.9634   -0.0196 H         1 <0>         0.1232
     44 H5          1.2231   -1.7588   -0.0176 H         1 <0>         0.1165
     45 H6         -0.9258   -0.5567    0.0082 H         1 <0>         0.1170
     46 H7          3.5884   -1.6586   -0.5549 H         1 <0>         0.0834
     47 H8          4.4573   -0.1052   -0.5563 H         1 <0>         0.0855
     48 H9          4.4629   -3.1099    1.3968 H         1 <0>         0.1770
     49 H10         4.0961    0.5207    5.1299 H         1 <0>         0.1099
     50 H11         6.9867    0.7704    4.1859 H         1 <0>         0.0794
     51 H12         5.6720    1.8751    3.7176 H         1 <0>         0.0983
     52 H13         4.6753    3.3803    5.3442 H         1 <0>         0.1144
     53 H14         5.0010    4.6511    7.4279 H         1 <0>         0.1134
     54 H15         8.1633    2.0149    8.5414 H         1 <0>         0.1191
     55 H16         7.8320    0.7390    6.4616 H         1 <0>         0.1070
     56 H17         6.0572    4.9782    9.4925 H         1 <0>         0.1349
     57 H18         6.3716    3.7629   11.4802 H         1 <0>         0.1016
     58 H19         6.2793    2.3391   10.4122 H         1 <0>         0.1105
     59 H20         6.1347   -1.5901    5.3883 H         1 <0>         0.4146
     60 H21         2.9569    1.0556    7.2113 H         1 <0>         0.1533
     61 H22         0.5353    0.6768    7.4388 H         1 <0>         0.1448
     62 H23        -0.3250   -1.5979    7.8236 H         1 <0>         0.1433
     63 H24         3.6638   -3.1166    7.7399 H         1 <0>         0.1496
@<TRIPOS>BOND
     1    1    6 ar
     2    1    2 ar
     3    1   41 1
     4    2    3 ar
     5    2   42 1
     6    3    4 ar
     7    3   43 1
     8    4    5 ar
     9    4    7 1
    10    5    6 ar
    11    5   44 1
    12    6   45 1
    13    7   46 1
    14    7   47 1
    15    7    8 1
    16    8   12 1
    17    8    9 2
    18    9   48 1
    19    9   10 1
    20   10   11 1
    21   10   13 1
    22   11   14 1
    23   11   12 2
    24   14   15 1
    25   14   30 1
    26   14   49 1
    27   15   16 1
    28   15   50 1
    29   15   51 1
    30   16   21 ar
    31   16   17 ar
    32   17   18 ar
    33   17   52 1
    34   18   19 ar
    35   18   53 1
    36   19   20 ar
    37   19   22 1
    38   20   21 ar
    39   20   54 1
    40   21   55 1
    41   22   27 1
    42   22   23 1
    43   22   56 1
    44   23   24 1
    45   23   57 1
    46   23   58 1
    47   24   25 1
    48   24   26 2
    49   26   27 1
    50   27   28 2
    51   27   29 2
    52   30   31 1
    53   30   59 1
    54   31   32 2
    55   31   33 2
    56   31   34 1
    57   34   39 ar
    58   34   35 ar
    59   35   36 ar
    60   35   60 1
    61   36   37 ar
    62   36   61 1
    63   37   38 ar
    64   37   62 1
    65   38   39 ar
    66   38   40 1
    67   39   63 1
@<TRIPOS>MOLECULE
CHEMBL404319__4
   63    67     0     0     0
SMALL
USER_CHARGES

@<TRIPOS>ATOM
      1 C1         -0.0167    1.3781    0.0096 C.ar      1 <0>        -0.1221
      2 C2          1.1709    2.0855    0.0021 C.ar      1 <0>        -0.1193
      3 C3          2.3773    1.4107   -0.0130 C.ar      1 <0>        -0.1094
      4 C4          2.3960    0.0285   -0.0201 C.ar      1 <0>        -0.0819
      5 C5          1.2084   -0.6789   -0.0117 C.ar      1 <0>        -0.1111
      6 C6          0.0021   -0.0041    0.0020 C.ar      1 <0>        -0.1167
      7 C7          3.7112   -0.7071   -0.0376 C.3       1 <0>        -0.0043
      8 C8          4.1644   -0.9594    1.3773 C.2       1 <0>        -0.0095
      9 C9          4.8495   -0.1083    2.1647 C.2       1 <0>        -0.0183
     10 N1          5.0567   -0.7105    3.3451 N.2       1 <0>        -0.4668
     11 C10         4.5261   -1.9025    3.3192 C.2       1 <0>         0.1926
     12 N2          3.9539   -2.0955    2.1113 N.pl3     1 <0>        -0.5484
     13 H1          3.4833   -2.8914    1.8178 H         1 <0>         0.4186
     14 C11         4.5439   -2.8967    4.4516 C.3       1 <0>         0.2531
     15 C12         5.9881   -3.1381    4.8955 C.3       1 <0>        -0.0699
     16 C13         6.0172   -4.2215    5.9426 C.ar      1 <0>        -0.0946
     17 C14         5.8993   -3.8933    7.2802 C.ar      1 <0>        -0.1116
     18 C15         5.9260   -4.8871    8.2407 C.ar      1 <0>        -0.1113
     19 C16         6.0703   -6.2092    7.8635 C.ar      1 <0>        -0.0476
     20 C17         6.1874   -6.5375    6.5258 C.ar      1 <0>        -0.0983
     21 C18         6.1563   -5.5440    5.5651 C.ar      1 <0>        -0.1084
     22 C19         6.1005   -7.2925    8.9107 C.3       1 <0>        -0.5540
     23 C20         7.3189   -8.2381    8.7209 C.3       1 <0>        -0.1436
     24 C21         6.8685   -9.6438    8.9820 C.2       1 <0>         0.4311
     25 O1          7.7781  -10.6087    9.2310 O.3       1 <0>        -0.6596
     26 N3          5.6187   -9.9288    8.9689 N.2       1 <0>        -0.9128
     27 S1          4.7602   -8.5270    8.6478 S.o2      1 <0>         2.4523
     28 O2          3.7762   -8.4346    9.6689 O.2       1 <0>        -0.9680
     29 O3          4.3991   -8.6013    7.2755 O.2       1 <0>        -0.9803
     30 N4          3.7688   -2.3689    5.5771 N.pl3     1 <0>        -1.0968
     31 S2          2.1774   -2.7902    5.7564 S.o2      1 <0>         2.6931
     32 O4          1.7180   -2.1485    6.9381 O.2       1 <0>        -0.9534
     33 O5          1.5597   -2.5914    4.4922 O.2       1 <0>        -0.9534
     34 C22         2.1297   -4.5228    6.0733 C.ar      1 <0>        -0.6599
     35 C23         2.0406   -5.4156    5.0212 C.ar      1 <0>        -0.0392
     36 C24         2.0031   -6.7750    5.2682 C.ar      1 <0>        -0.1058
     37 C25         2.0542   -7.2435    6.5676 C.ar      1 <0>        -0.0581
     38 C26         2.1434   -6.3507    7.6218 C.ar      1 <0>         0.0682
     39 C27         2.1871   -4.9891    7.3727 C.ar      1 <0>        -0.0511
     40 F1          2.1930   -6.8074    8.8922 F         1 <0>        -0.1113
     41 H2         -0.9591    1.9053    0.0259 H         1 <0>         0.1203
     42 H3          1.1563    3.1654    0.0076 H         1 <0>         0.1215
     43 H4          3.3051    1.9634   -0.0196 H         1 <0>         0.1229
     44 H5          1.2231   -1.7588   -0.0176 H         1 <0>         0.1181
     45 H6         -0.9258   -0.5567    0.0082 H         1 <0>         0.1215
     46 H7          3.5884   -1.6586   -0.5549 H         1 <0>         0.0807
     47 H8          4.4573   -0.1052   -0.5563 H         1 <0>         0.0982
     48 H9          5.1750    0.8850    1.8932 H         1 <0>         0.1677
     49 H10         4.1048   -3.8365    4.1169 H         1 <0>         0.0976
     50 H11         6.5853   -3.4461    4.0373 H         1 <0>         0.0893
     51 H12         6.3985   -2.2185    5.3127 H         1 <0>         0.0961
     52 H13         5.7866   -2.8604    7.5749 H         1 <0>         0.1232
     53 H14         5.8346   -4.6306    9.2858 H         1 <0>         0.1238
     54 H15         6.3004   -7.5703    6.2312 H         1 <0>         0.1335
     55 H16         6.2440   -5.8009    4.5197 H         1 <0>         0.1226
     56 H17         6.0690   -6.8739    9.9166 H         1 <0>         0.1376
     57 H18         7.6932   -8.1553    7.7005 H         1 <0>         0.1038
     58 H19         8.1070   -7.9679    9.4238 H         1 <0>         0.1059
     59 H20         4.1877   -1.7726    6.2173 H         1 <0>         0.4256
     60 H21         1.9998   -5.0504    4.0056 H         1 <0>         0.1378
     61 H22         1.9334   -7.4714    4.4457 H         1 <0>         0.1413
     62 H23         2.0242   -8.3058    6.7604 H         1 <0>         0.1499
     63 H24         2.2612   -4.2918    8.1941 H         1 <0>         0.1486
@<TRIPOS>BOND
     1    1    6 ar
     2    1    2 ar
     3    1   41 1
     4    2    3 ar
     5    2   42 1
     6    3    4 ar
     7    3   43 1
     8    4    5 ar
     9    4    7 1
    10    5    6 ar
    11    5   44 1
    12    6   45 1
    13    7    8 1
    14    7   46 1
    15    7   47 1
    16    8   12 1
    17    8    9 2
    18    9   10 1
    19    9   48 1
    20   10   11 2
    21   11   12 1
    22   11   14 1
    23   12   13 1
    24   14   15 1
    25   14   30 1
    26   14   49 1
    27   15   16 1
    28   15   50 1
    29   15   51 1
    30   16   21 ar
    31   16   17 ar
    32   17   18 ar
    33   17   52 1
    34   18   19 ar
    35   18   53 1
    36   19   20 ar
    37   19   22 1
    38   20   21 ar
    39   20   54 1
    40   21   55 1
    41   22   27 1
    42   22   23 1
    43   22   56 1
    44   23   24 1
    45   23   57 1
    46   23   58 1
    47   24   25 1
    48   24   26 2
    49   26   27 1
    50   27   28 2
    51   27   29 2
    52   30   31 1
    53   30   59 1
    54   31   32 2
    55   31   33 2
    56   31   34 1
    57   34   39 ar
    58   34   35 ar
    59   35   36 ar
    60   35   60 1
    61   36   37 ar
    62   36   61 1
    63   37   38 ar
    64   37   62 1
    65   38   39 ar
    66   38   40 1
    67   39   63 1
@<TRIPOS>MOLECULE
CHEMBL404319__5
   63    67     0     0     0
SMALL
USER_CHARGES

@<TRIPOS>ATOM
      1 C1         -0.0167    1.3781    0.0096 C.ar      1 <0>        -0.1257
      2 C2          1.1709    2.0855    0.0021 C.ar      1 <0>        -0.1215
      3 C3          2.3773    1.4107   -0.0130 C.ar      1 <0>        -0.0977
      4 C4          2.3960    0.0285   -0.0201 C.ar      1 <0>        -0.0704
      5 C5          1.2084   -0.6789   -0.0117 C.ar      1 <0>        -0.1160
      6 C6          0.0021   -0.0041    0.0020 C.ar      1 <0>        -0.1232
      7 C7          3.7112   -0.7071   -0.0376 C.3       1 <0>         0.0056
      8 C8          4.1644   -0.9594    1.3773 C.2       1 <0>         0.0058
      9 C9          4.4839   -2.1568    1.9043 C.2       1 <0>        -0.0420
     10 N1          4.8400   -1.9339    3.2071 N.pl3     1 <0>        -0.5530
     11 C10         4.7256   -0.6070    3.4310 C.2       1 <0>         0.1930
     12 N2          4.3260   -0.0300    2.3308 N.2       1 <0>        -0.4566
     13 H1          5.1218   -2.6038    3.8495 H         1 <0>         0.4209
     14 C11         5.0168    0.0922    4.7338 C.3       1 <0>         0.2530
     15 C12         6.0377    1.2069    4.4973 C.3       1 <0>        -0.0695
     16 C13         6.4212    1.8252    5.8170 C.ar      1 <0>        -0.0946
     17 C14         5.7029    2.8971    6.3128 C.ar      1 <0>        -0.1114
     18 C15         6.0547    3.4642    7.5234 C.ar      1 <0>        -0.1113
     19 C16         7.1245    2.9591    8.2384 C.ar      1 <0>        -0.0474
     20 C17         7.8423    1.8866    7.7430 C.ar      1 <0>        -0.0983
     21 C18         7.4878    1.3168    6.5345 C.ar      1 <0>        -0.1084
     22 C19         7.5086    3.5780    9.5577 C.3       1 <0>        -0.5540
     23 C20         9.0260    3.9081    9.6147 C.3       1 <0>        -0.1435
     24 C21         9.5321    3.5597   10.9821 C.2       1 <0>         0.4312
     25 O1         10.7070    4.0620   11.4151 O.3       1 <0>        -0.6596
     26 N3          8.8479    2.7846   11.7400 N.2       1 <0>        -0.9128
     27 S1          7.4507    2.3478   10.9261 S.o2      1 <0>         2.4524
     28 O2          6.3807    2.6289   11.8178 O.2       1 <0>        -0.9680
     29 O3          7.6830    1.0334   10.4385 O.2       1 <0>        -0.9803
     30 N4          3.7794    0.6681    5.2661 N.pl3     1 <0>        -1.0963
     31 S2          2.8834   -0.1751    6.3745 S.o2      1 <0>         2.6936
     32 O4          1.7751    0.6479    6.7115 O.2       1 <0>        -0.9531
     33 O5          2.7269   -1.4886    5.8554 O.2       1 <0>        -0.9550
     34 C22         3.8626   -0.3229    7.8319 C.ar      1 <0>        -0.6601
     35 C23         4.7084   -1.4053    7.9894 C.ar      1 <0>        -0.0392
     36 C24         5.4771   -1.5226    9.1321 C.ar      1 <0>        -0.1058
     37 C25         5.4007   -0.5579   10.1191 C.ar      1 <0>        -0.0580
     38 C26         4.5541    0.5262    9.9626 C.ar      1 <0>         0.0682
     39 C27         3.7890    0.6458    8.8145 C.ar      1 <0>        -0.0510
     40 F1          4.4783    1.4694   10.9268 F         1 <0>        -0.1113
     41 H2         -0.9591    1.9053    0.0259 H         1 <0>         0.1175
     42 H3          1.1563    3.1654    0.0076 H         1 <0>         0.1191
     43 H4          3.3051    1.9634   -0.0196 H         1 <0>         0.1218
     44 H5          1.2231   -1.7588   -0.0176 H         1 <0>         0.1175
     45 H6         -0.9258   -0.5567    0.0082 H         1 <0>         0.1178
     46 H7          3.5884   -1.6586   -0.5549 H         1 <0>         0.0827
     47 H8          4.4573   -0.1052   -0.5563 H         1 <0>         0.0834
     48 H9          4.4629   -3.1099    1.3968 H         1 <0>         0.1762
     49 H10         5.4207   -0.6248    5.4486 H         1 <0>         0.0977
     50 H11         6.9249    0.7917    4.0191 H         1 <0>         0.0889
     51 H12         5.6005    1.9692    3.8523 H         1 <0>         0.0958
     52 H13         4.8670    3.2917    5.7542 H         1 <0>         0.1229
     53 H14         5.4939    4.3022    7.9104 H         1 <0>         0.1237
     54 H15         8.6783    1.4922    8.3014 H         1 <0>         0.1335
     55 H16         8.0463    0.4765    6.1492 H         1 <0>         0.1225
     56 H17         6.8979    4.4534    9.7788 H         1 <0>         0.1376
     57 H18         9.5582    3.3222    8.8653 H         1 <0>         0.1037
     58 H19         9.1785    4.9708    9.4259 H         1 <0>         0.1059
     59 H20         3.4849    1.5434    4.9693 H         1 <0>         0.4256
     60 H21         4.7682   -2.1598    7.2190 H         1 <0>         0.1381
     61 H22         6.1374   -2.3684    9.2540 H         1 <0>         0.1414
     62 H23         6.0009   -0.6502   11.0122 H         1 <0>         0.1499
     63 H24         3.1316    1.4934    8.6893 H         1 <0>         0.1486
@<TRIPOS>BOND
     1    1    6 ar
     2    1    2 ar
     3    1   41 1
     4    2    3 ar
     5    2   42 1
     6    3    4 ar
     7    3   43 1
     8    4    5 ar
     9    4    7 1
    10    5    6 ar
    11    5   44 1
    12    6   45 1
    13    7   46 1
    14    7   47 1
    15    7    8 1
    16    8   12 1
    17    8    9 2
    18    9   48 1
    19    9   10 1
    20   10   11 1
    21   10   13 1
    22   11   14 1
    23   11   12 2
    24   14   15 1
    25   14   30 1
    26   14   49 1
    27   15   16 1
    28   15   50 1
    29   15   51 1
    30   16   21 ar
    31   16   17 ar
    32   17   18 ar
    33   17   52 1
    34   18   19 ar
    35   18   53 1
    36   19   20 ar
    37   19   22 1
    38   20   21 ar
    39   20   54 1
    40   21   55 1
    41   22   27 1
    42   22   23 1
    43   22   56 1
    44   23   24 1
    45   23   57 1
    46   23   58 1
    47   24   25 1
    48   24   26 2
    49   26   27 1
    50   27   28 2
    51   27   29 2
    52   30   31 1
    53   30   59 1
    54   31   32 2
    55   31   33 2
    56   31   34 1
    57   34   39 ar
    58   34   35 ar
    59   35   36 ar
    60   35   60 1
    61   36   37 ar
    62   36   61 1
    63   37   38 ar
    64   37   62 1
    65   38   39 ar
    66   38   40 1
    67   39   63 1
@<TRIPOS>MOLECULE
CHEMBL404319__6
   63    67     0     0     0
SMALL
USER_CHARGES

@<TRIPOS>ATOM
      1 C1         -0.0167    1.3781    0.0096 C.ar      1 <0>        -0.1224
      2 C2          1.1709    2.0855    0.0021 C.ar      1 <0>        -0.1192
      3 C3          2.3773    1.4107   -0.0130 C.ar      1 <0>        -0.1093
      4 C4          2.3960    0.0285   -0.0201 C.ar      1 <0>        -0.0813
      5 C5          1.2084   -0.6789   -0.0117 C.ar      1 <0>        -0.1112
      6 C6          0.0021   -0.0041    0.0020 C.ar      1 <0>        -0.1169
      7 C7          3.7112   -0.7071   -0.0376 C.3       1 <0>        -0.0046
      8 C8          4.1644   -0.9594    1.3773 C.2       1 <0>        -0.0094
      9 C9          4.8495   -0.1083    2.1647 C.2       1 <0>        -0.0180
     10 N1          5.0567   -0.7105    3.3451 N.2       1 <0>        -0.4661
     11 C10         4.5261   -1.9025    3.3192 C.2       1 <0>         0.1925
     12 N2          3.9539   -2.0955    2.1113 N.pl3     1 <0>        -0.5485
     13 H1          3.4833   -2.8914    1.8178 H         1 <0>         0.4183
     14 C11         4.5439   -2.8967    4.4516 C.3       1 <0>         0.2536
     15 C12         5.9881   -3.1381    4.8955 C.3       1 <0>        -0.0702
     16 C13         6.0172   -4.2215    5.9426 C.ar      1 <0>        -0.0955
     17 C14         5.8993   -3.8933    7.2802 C.ar      1 <0>        -0.1107
     18 C15         5.9260   -4.8871    8.2407 C.ar      1 <0>        -0.1117
     19 C16         6.0703   -6.2092    7.8635 C.ar      1 <0>        -0.0358
     20 C17         6.1874   -6.5375    6.5258 C.ar      1 <0>        -0.1012
     21 C18         6.1563   -5.5440    5.5651 C.ar      1 <0>        -0.1043
     22 C19         6.1005   -7.2925    8.9107 C.3       1 <0>        -0.5519
     23 C20         5.1055   -8.4386    8.5772 C.3       1 <0>        -0.1435
     24 C21         5.8547   -9.5156    7.8519 C.2       1 <0>         0.4338
     25 O1          5.1815  -10.4476    7.1457 O.3       1 <0>        -0.6600
     26 N3          7.1351   -9.5505    7.9024 N.2       1 <0>        -0.9076
     27 S1          7.6626   -8.2641    8.8363 S.o2      1 <0>         2.4553
     28 O2          8.6412   -7.5944    8.0533 O.2       1 <0>        -0.9703
     29 O3          7.9802   -8.8144   10.1073 O.2       1 <0>        -0.9919
     30 N4          3.7688   -2.3689    5.5771 N.pl3     1 <0>        -1.0953
     31 S2          2.1774   -2.7902    5.7564 S.o2      1 <0>         2.6929
     32 O4          1.7180   -2.1485    6.9381 O.2       1 <0>        -0.9530
     33 O5          1.5597   -2.5914    4.4922 O.2       1 <0>        -0.9518
     34 C22         2.1297   -4.5228    6.0733 C.ar      1 <0>        -0.6528
     35 C23         2.0406   -5.4156    5.0212 C.ar      1 <0>        -0.0382
     36 C24         2.0031   -6.7750    5.2682 C.ar      1 <0>        -0.1033
     37 C25         2.0542   -7.2435    6.5676 C.ar      1 <0>        -0.0893
     38 C26         2.1434   -6.3507    7.6218 C.ar      1 <0>         0.0904
     39 C27         2.1871   -4.9891    7.3727 C.ar      1 <0>        -0.0473
     40 F1          2.1930   -6.8074    8.8922 F         1 <0>        -0.1285
     41 H2         -0.9591    1.9053    0.0259 H         1 <0>         0.1202
     42 H3          1.1563    3.1654    0.0076 H         1 <0>         0.1215
     43 H4          3.3051    1.9634   -0.0196 H         1 <0>         0.1231
     44 H5          1.2231   -1.7588   -0.0176 H         1 <0>         0.1181
     45 H6         -0.9258   -0.5567    0.0082 H         1 <0>         0.1212
     46 H7          3.5884   -1.6586   -0.5549 H         1 <0>         0.0809
     47 H8          4.4573   -0.1052   -0.5563 H         1 <0>         0.0983
     48 H9          5.1750    0.8850    1.8932 H         1 <0>         0.1678
     49 H10         4.1048   -3.8365    4.1169 H         1 <0>         0.0968
     50 H11         6.5853   -3.4461    4.0373 H         1 <0>         0.0902
     51 H12         6.3985   -2.2185    5.3127 H         1 <0>         0.0966
     52 H13         5.7866   -2.8604    7.5749 H         1 <0>         0.1225
     53 H14         5.8346   -4.6306    9.2858 H         1 <0>         0.1224
     54 H15         6.3004   -7.5703    6.2312 H         1 <0>         0.1276
     55 H16         6.2440   -5.8009    4.5197 H         1 <0>         0.1225
     56 H17         5.9273   -6.8867    9.9074 H         1 <0>         0.1383
     57 H18         4.6849   -8.8402    9.4991 H         1 <0>         0.1047
     58 H19         4.3044   -8.0574    7.9439 H         1 <0>         0.1013
     59 H20         4.1877   -1.7726    6.2173 H         1 <0>         0.4264
     60 H21         1.9998   -5.0504    4.0056 H         1 <0>         0.1401
     61 H22         1.9334   -7.4714    4.4457 H         1 <0>         0.1441
     62 H23         2.0242   -8.3058    6.7604 H         1 <0>         0.1501
     63 H24         2.2612   -4.2918    8.1941 H         1 <0>         0.1498
@<TRIPOS>BOND
     1    1    6 ar
     2    1    2 ar
     3    1   41 1
     4    2    3 ar
     5    2   42 1
     6    3    4 ar
     7    3   43 1
     8    4    5 ar
     9    4    7 1
    10    5    6 ar
    11    5   44 1
    12    6   45 1
    13    7    8 1
    14    7   46 1
    15    7   47 1
    16    8   12 1
    17    8    9 2
    18    9   10 1
    19    9   48 1
    20   10   11 2
    21   11   12 1
    22   11   14 1
    23   12   13 1
    24   14   15 1
    25   14   30 1
    26   14   49 1
    27   15   16 1
    28   15   50 1
    29   15   51 1
    30   16   21 ar
    31   16   17 ar
    32   17   18 ar
    33   17   52 1
    34   18   19 ar
    35   18   53 1
    36   19   20 ar
    37   19   22 1
    38   20   21 ar
    39   20   54 1
    40   21   55 1
    41   22   27 1
    42   22   23 1
    43   22   56 1
    44   23   24 1
    45   23   57 1
    46   23   58 1
    47   24   25 1
    48   24   26 2
    49   26   27 1
    50   27   28 2
    51   27   29 2
    52   30   31 1
    53   30   59 1
    54   31   32 2
    55   31   33 2
    56   31   34 1
    57   34   39 ar
    58   34   35 ar
    59   35   36 ar
    60   35   60 1
    61   36   37 ar
    62   36   61 1
    63   37   38 ar
    64   37   62 1
    65   38   39 ar
    66   38   40 1
    67   39   63 1
@<TRIPOS>MOLECULE
CHEMBL404319__7
   63    67     0     0     0
SMALL
USER_CHARGES

@<TRIPOS>ATOM
      1 C1         -0.0167    1.3781    0.0096 C.ar      1 <0>        -0.1260
      2 C2          1.1709    2.0855    0.0021 C.ar      1 <0>        -0.1214
      3 C3          2.3773    1.4107   -0.0130 C.ar      1 <0>        -0.0974
      4 C4          2.3960    0.0285   -0.0201 C.ar      1 <0>        -0.0700
      5 C5          1.2084   -0.6789   -0.0117 C.ar      1 <0>        -0.1161
      6 C6          0.0021   -0.0041    0.0020 C.ar      1 <0>        -0.1235
      7 C7          3.7112   -0.7071   -0.0376 C.3       1 <0>         0.0052
      8 C8          4.1644   -0.9594    1.3773 C.2       1 <0>         0.0061
      9 C9          4.4839   -2.1568    1.9043 C.2       1 <0>        -0.0419
     10 N1          4.8400   -1.9339    3.2071 N.pl3     1 <0>        -0.5532
     11 C10         4.7256   -0.6070    3.4310 C.2       1 <0>         0.1928
     12 N2          4.3260   -0.0300    2.3308 N.2       1 <0>        -0.4561
     13 H1          5.1218   -2.6038    3.8495 H         1 <0>         0.4207
     14 C11         5.0168    0.0922    4.7338 C.3       1 <0>         0.2535
     15 C12         6.0377    1.2069    4.4973 C.3       1 <0>        -0.0697
     16 C13         6.4212    1.8252    5.8170 C.ar      1 <0>        -0.0954
     17 C14         5.7029    2.8971    6.3128 C.ar      1 <0>        -0.1105
     18 C15         6.0547    3.4642    7.5234 C.ar      1 <0>        -0.1117
     19 C16         7.1245    2.9591    8.2384 C.ar      1 <0>        -0.0357
     20 C17         7.8423    1.8866    7.7430 C.ar      1 <0>        -0.1013
     21 C18         7.4878    1.3168    6.5345 C.ar      1 <0>        -0.1043
     22 C19         7.5086    3.5780    9.5577 C.3       1 <0>        -0.5519
     23 C20         7.6572    2.5048   10.6716 C.3       1 <0>        -0.1435
     24 C21         9.1020    2.1151   10.7595 C.2       1 <0>         0.4338
     25 O1          9.4559    0.9717   11.3822 O.3       1 <0>        -0.6599
     26 N3         10.0012    2.8683   10.2424 N.2       1 <0>        -0.9076
     27 S1          9.2456    4.1879    9.5402 S.o2      1 <0>         2.4551
     28 O2          9.7467    4.2582    8.2124 O.2       1 <0>        -0.9703
     29 O3          9.4167    5.2622   10.4545 O.2       1 <0>        -0.9919
     30 N4          3.7794    0.6681    5.2661 N.pl3     1 <0>        -1.0947
     31 S2          2.8834   -0.1751    6.3745 S.o2      1 <0>         2.6934
     32 O4          1.7751    0.6479    6.7115 O.2       1 <0>        -0.9526
     33 O5          2.7269   -1.4886    5.8554 O.2       1 <0>        -0.9534
     34 C22         3.8626   -0.3229    7.8319 C.ar      1 <0>        -0.6530
     35 C23         4.7084   -1.4053    7.9894 C.ar      1 <0>        -0.0383
     36 C24         5.4771   -1.5226    9.1321 C.ar      1 <0>        -0.1033
     37 C25         5.4007   -0.5579   10.1191 C.ar      1 <0>        -0.0893
     38 C26         4.5541    0.5262    9.9626 C.ar      1 <0>         0.0904
     39 C27         3.7890    0.6458    8.8145 C.ar      1 <0>        -0.0472
     40 F1          4.4783    1.4694   10.9268 F         1 <0>        -0.1285
     41 H2         -0.9591    1.9053    0.0259 H         1 <0>         0.1173
     42 H3          1.1563    3.1654    0.0076 H         1 <0>         0.1192
     43 H4          3.3051    1.9634   -0.0196 H         1 <0>         0.1222
     44 H5          1.2231   -1.7588   -0.0176 H         1 <0>         0.1174
     45 H6         -0.9258   -0.5567    0.0082 H         1 <0>         0.1176
     46 H7          3.5884   -1.6586   -0.5549 H         1 <0>         0.0827
     47 H8          4.4573   -0.1052   -0.5563 H         1 <0>         0.0837
     48 H9          4.4629   -3.1099    1.3968 H         1 <0>         0.1762
     49 H10         5.4207   -0.6248    5.4486 H         1 <0>         0.0969
     50 H11         6.9249    0.7917    4.0191 H         1 <0>         0.0898
     51 H12         5.6005    1.9692    3.8523 H         1 <0>         0.0962
     52 H13         4.8670    3.2917    5.7542 H         1 <0>         0.1222
     53 H14         5.4939    4.3022    7.9104 H         1 <0>         0.1223
     54 H15         8.6783    1.4922    8.3014 H         1 <0>         0.1275
     55 H16         8.0463    0.4765    6.1492 H         1 <0>         0.1225
     56 H17         6.8103    4.3636    9.8464 H         1 <0>         0.1383
     57 H18         7.3288    2.9171   11.6256 H         1 <0>         0.1047
     58 H19         7.0551    1.6309   10.4228 H         1 <0>         0.1013
     59 H20         3.4849    1.5434    4.9693 H         1 <0>         0.4263
     60 H21         4.7682   -2.1598    7.2190 H         1 <0>         0.1404
     61 H22         6.1374   -2.3684    9.2540 H         1 <0>         0.1442
     62 H23         6.0009   -0.6502   11.0122 H         1 <0>         0.1501
     63 H24         3.1316    1.4934    8.6893 H         1 <0>         0.1498
@<TRIPOS>BOND
     1    1    6 ar
     2    1    2 ar
     3    1   41 1
     4    2    3 ar
     5    2   42 1
     6    3    4 ar
     7    3   43 1
     8    4    5 ar
     9    4    7 1
    10    5    6 ar
    11    5   44 1
    12    6   45 1
    13    7   46 1
    14    7   47 1
    15    7    8 1
    16    8   12 1
    17    8    9 2
    18    9   48 1
    19    9   10 1
    20   10   11 1
    21   10   13 1
    22   11   14 1
    23   11   12 2
    24   14   15 1
    25   14   30 1
    26   14   49 1
    27   15   16 1
    28   15   50 1
    29   15   51 1
    30   16   21 ar
    31   16   17 ar
    32   17   18 ar
    33   17   52 1
    34   18   19 ar
    35   18   53 1
    36   19   20 ar
    37   19   22 1
    38   20   21 ar
    39   20   54 1
    40   21   55 1
    41   22   27 1
    42   22   23 1
    43   22   56 1
    44   23   24 1
    45   23   57 1
    46   23   58 1
    47   24   25 1
    48   24   26 2
    49   26   27 1
    50   27   28 2
    51   27   29 2
    52   30   31 1
    53   30   59 1
    54   31   32 2
    55   31   33 2
    56   31   34 1
    57   34   39 ar
    58   34   35 ar
    59   35   36 ar
    60   35   60 1
    61   36   37 ar
    62   36   61 1
    63   37   38 ar
    64   37   62 1
    65   38   39 ar
    66   38   40 1
    67   39   63 1
@<TRIPOS>MOLECULE
CHEMBL9087
   63    66     0     0     0
SMALL
USER_CHARGES

@<TRIPOS>ATOM
      1 C1         -0.1439    0.9368    2.1361 C.ar      1 <0>        -0.1287
      2 C2          1.0175    1.6691    1.9658 C.ar      1 <0>        -0.1208
      3 C3          2.1707    1.0481    1.5322 C.ar      1 <0>        -0.1132
      4 C4          2.1641   -0.3215    1.2657 C.ar      1 <0>        -0.0419
      5 C5          0.9896   -1.0544    1.4399 C.ar      1 <0>        -0.1152
      6 C6         -0.1571   -0.4214    1.8737 C.ar      1 <0>        -0.1171
      7 C7          3.3959   -0.9931    0.8004 C.2       1 <0>        -0.1299
      8 C8          3.3865   -2.2945    0.5480 C.2       1 <0>        -0.1345
      9 C9          4.6423   -2.9792    0.0736 C.3       1 <0>        -0.0942
     10 C10         5.0054   -4.1067    1.0420 C.3       1 <0>        -0.0449
     11 C11         6.3463   -4.7189    0.6322 C.3       1 <0>        -0.0667
     12 C12         6.2815   -5.1508   -0.8102 C.ar      1 <0>        -0.1009
     13 C13         5.7733   -6.3940   -1.1373 C.ar      1 <0>        -0.1086
     14 C14         5.7138   -6.7901   -2.4603 C.ar      1 <0>        -0.0711
     15 C15         6.1622   -5.9429   -3.4563 C.ar      1 <0>        -0.0964
     16 C16         6.6696   -4.6993   -3.1293 C.ar      1 <0>        -0.0865
     17 C17         6.7250   -4.3014   -1.8066 C.ar      1 <0>        -0.1258
     18 C18         6.0983   -6.3751   -4.8986 C.3       1 <0>        -0.2349
     19 F1          4.9568   -7.1584   -5.1005 F         1 <0>        -0.2124
     20 F2          6.0403   -5.2454   -5.7218 F         1 <0>        -0.2130
     21 P1          7.5839   -7.3493   -5.3074 P.3       1 <0>         2.1365
     22 O1          8.8524   -6.4359   -5.2029 O.2       1 <0>        -1.1351
     23 O2          7.7170   -8.5447   -4.3035 O.3       1 <0>        -1.1331
     24 O3          7.4590   -7.9046   -6.7670 O.3       1 <0>        -1.1409
     25 C19         3.9356   -5.1674    1.0017 C.ar      1 <0>        -0.0543
     26 C20         2.9103   -5.0802    0.0786 C.ar      1 <0>        -0.1098
     27 C21         1.9290   -6.0531    0.0416 C.ar      1 <0>        -0.1207
     28 C22         1.9733   -7.1135    0.9274 C.ar      1 <0>        -0.1199
     29 C23         2.9991   -7.2012    1.8498 C.ar      1 <0>        -0.1217
     30 C24         3.9828   -6.2305    1.8839 C.ar      1 <0>        -0.0913
     31 C25         5.1119   -3.5536    2.4398 C.2       1 <0>         0.4138
     32 O4          4.3766   -3.9644    3.3120 O.2       1 <0>        -0.4399
     33 C26         6.1085   -2.5150    2.7461 C.ar      1 <0>        -0.1559
     34 C27         6.9467   -2.0262    1.7390 C.ar      1 <0>        -0.0846
     35 C28         7.8776   -1.0527    2.0339 C.ar      1 <0>        -0.1298
     36 C29         7.9837   -0.5593    3.3226 C.ar      1 <0>        -0.0915
     37 C30         7.1581   -1.0381    4.3249 C.ar      1 <0>        -0.1353
     38 C31         6.2183   -2.0074    4.0447 C.ar      1 <0>        -0.0638
     39 H1         -1.0429    1.4268    2.4797 H         1 <0>         0.1179
     40 H2          1.0213    2.7292    2.1724 H         1 <0>         0.1196
     41 H3          3.0765    1.6210    1.3989 H         1 <0>         0.1219
     42 H4          0.9779   -2.1147    1.2350 H         1 <0>         0.1241
     43 H5         -1.0669   -0.9875    2.0086 H         1 <0>         0.1205
     44 H6          4.3036   -0.4235    0.6660 H         1 <0>         0.1185
     45 H7          2.4787   -2.8640    0.6825 H         1 <0>         0.1219
     46 H8          4.4768   -3.3935   -0.9208 H         1 <0>         0.1052
     47 H9          5.4576   -2.2567    0.0351 H         1 <0>         0.0863
     48 H10         7.1365   -3.9782    0.7545 H         1 <0>         0.0867
     49 H11         6.5583   -5.5836    1.2611 H         1 <0>         0.0792
     50 H12         5.4230   -7.0560   -0.3591 H         1 <0>         0.1150
     51 H13         5.3174   -7.7617   -2.7158 H         1 <0>         0.1265
     52 H14         7.0202   -4.0374   -3.9074 H         1 <0>         0.1253
     53 H15         7.1180   -3.3284   -1.5513 H         1 <0>         0.1142
     54 H16         2.8757   -4.2517   -0.6134 H         1 <0>         0.1257
     55 H17         1.1275   -5.9846   -0.6790 H         1 <0>         0.1179
     56 H18         1.2063   -7.8733    0.8989 H         1 <0>         0.1166
     57 H19         3.0336   -8.0295    2.5420 H         1 <0>         0.1177
     58 H20         4.7863   -6.3010    2.6021 H         1 <0>         0.1150
     59 H21         6.8654   -2.4106    0.7329 H         1 <0>         0.1484
     60 H22         8.5259   -0.6745    1.2573 H         1 <0>         0.1311
     61 H23         8.7148    0.2032    3.5474 H         1 <0>         0.1243
     62 H24         7.2471   -0.6484    5.3282 H         1 <0>         0.1246
     63 H25         5.5717   -2.3769    4.8269 H         1 <0>         0.1298
@<TRIPOS>BOND
     1    1    6 ar
     2    1    2 ar
     3    1   39 1
     4    2    3 ar
     5    2   40 1
     6    3    4 ar
     7    3   41 1
     8    4    5 ar
     9    4    7 1
    10    5    6 ar
    11    5   42 1
    12    6   43 1
    13    7    8 2
    14    7   44 1
    15    8    9 1
    16    8   45 1
    17    9   10 1
    18    9   46 1
    19    9   47 1
    20   10   11 1
    21   10   25 1
    22   10   31 1
    23   11   12 1
    24   11   48 1
    25   11   49 1
    26   12   17 ar
    27   12   13 ar
    28   13   14 ar
    29   13   50 1
    30   14   15 ar
    31   14   51 1
    32   15   16 ar
    33   15   18 1
    34   16   17 ar
    35   16   52 1
    36   17   53 1
    37   18   19 1
    38   18   20 1
    39   18   21 1
    40   21   22 2
    41   21   23 1
    42   21   24 1
    43   25   30 ar
    44   25   26 ar
    45   26   27 ar
    46   26   54 1
    47   27   28 ar
    48   27   55 1
    49   28   29 ar
    50   28   56 1
    51   29   30 ar
    52   29   57 1
    53   30   58 1
    54   31   32 2
    55   31   33 1
    56   33   38 ar
    57   33   34 ar
    58   34   35 ar
    59   34   59 1
    60   35   36 ar
    61   35   60 1
    62   36   37 ar
    63   36   61 1
    64   37   38 ar
    65   37   62 1
    66   38   63 1
@<TRIPOS>MOLECULE
CHEMBL9087__1
   63    66     0     0     0
SMALL
USER_CHARGES

@<TRIPOS>ATOM
      1 C1          1.0206    2.6635   -0.4014 C.ar      1 <0>        -0.1320
      2 C2          2.3344    3.0272   -0.1657 C.ar      1 <0>        -0.1195
      3 C3          3.3038    2.0583   -0.0072 C.ar      1 <0>        -0.1159
      4 C4          2.9565    0.7091   -0.0846 C.ar      1 <0>        -0.0345
      5 C5          1.6296    0.3489   -0.3221 C.ar      1 <0>        -0.1210
      6 C6          0.6698    1.3275   -0.4792 C.ar      1 <0>        -0.1160
      7 C7          3.9901   -0.3341    0.0837 C.2       1 <0>        -0.1457
      8 C8          3.6571   -1.6151    0.0097 C.2       1 <0>        -0.1094
      9 C9          4.7108   -2.6788    0.1813 C.3       1 <0>        -0.0770
     10 C10         4.2894   -3.6390    1.2954 C.3       1 <0>        -0.0486
     11 C11         5.3868   -4.6832    1.5109 C.3       1 <0>        -0.0661
     12 C12         5.6786   -5.3815    0.2077 C.ar      1 <0>        -0.1098
     13 C13         4.9114   -6.4627   -0.1839 C.ar      1 <0>        -0.1203
     14 C14         5.1791   -7.1033   -1.3793 C.ar      1 <0>        -0.0692
     15 C15         6.2136   -6.6624   -2.1832 C.ar      1 <0>        -0.0959
     16 C16         6.9802   -5.5807   -1.7920 C.ar      1 <0>        -0.0848
     17 C17         6.7098   -4.9374   -0.5987 C.ar      1 <0>        -0.1199
     18 C18         6.5060   -7.3614   -3.4859 C.3       1 <0>        -0.2342
     19 F1          5.3079   -7.8034   -4.0571 F         1 <0>        -0.2121
     20 F2          7.1393   -6.4719   -4.3605 F         1 <0>        -0.2124
     21 P1          7.5957   -8.7900   -3.1777 P.3       1 <0>         2.1365
     22 O1          8.9792   -8.2857   -2.6428 O.2       1 <0>        -1.1348
     23 O2          6.9354   -9.7304   -2.1128 O.3       1 <0>        -1.1332
     24 O3          7.8091   -9.5816   -4.5128 O.3       1 <0>        -1.1405
     25 C19         4.0746   -2.8655    2.5708 C.ar      1 <0>        -0.0592
     26 C20         4.9392   -3.0351    3.6360 C.ar      1 <0>        -0.1217
     27 C21         4.7422   -2.3255    4.8058 C.ar      1 <0>        -0.1162
     28 C22         3.6809   -1.4460    4.9104 C.ar      1 <0>        -0.1236
     29 C23         2.8169   -1.2757    3.8448 C.ar      1 <0>        -0.1138
     30 C24         3.0164   -1.9821    2.6735 C.ar      1 <0>        -0.1039
     31 C25         3.0083   -4.3300    0.9052 C.2       1 <0>         0.4157
     32 O4          2.5123   -4.1192   -0.1811 O.2       1 <0>        -0.4365
     33 C26         2.3591   -5.2605    1.8424 C.ar      1 <0>        -0.1588
     34 C27         2.8824   -5.4440    3.1263 C.ar      1 <0>        -0.0770
     35 C28         2.2681   -6.3173    3.9989 C.ar      1 <0>        -0.1336
     36 C29         1.1366   -7.0113    3.6070 C.ar      1 <0>        -0.0910
     37 C30         0.6129   -6.8355    2.3380 C.ar      1 <0>        -0.1333
     38 C31         1.2123   -5.9615    1.4559 C.ar      1 <0>        -0.0623
     39 H1          0.2648    3.4257   -0.5207 H         1 <0>         0.1171
     40 H2          2.6018    4.0719   -0.1061 H         1 <0>         0.1187
     41 H3          4.3292    2.3436    0.1760 H         1 <0>         0.1214
     42 H4          1.3545   -0.6937   -0.3834 H         1 <0>         0.1230
     43 H5         -0.3576    1.0500   -0.6634 H         1 <0>         0.1195
     44 H6          5.0165   -0.0527    0.2671 H         1 <0>         0.1171
     45 H7          2.6306   -1.8965   -0.1737 H         1 <0>         0.1192
     46 H8          4.8243   -3.2316   -0.7512 H         1 <0>         0.1008
     47 H9          5.6596   -2.2111    0.4443 H         1 <0>         0.0799
     48 H10         6.2909   -4.1913    1.8699 H         1 <0>         0.0887
     49 H11         5.0535   -5.4137    2.2479 H         1 <0>         0.0840
     50 H12         4.1032   -6.8071    0.4441 H         1 <0>         0.1117
     51 H13         4.5801   -7.9484   -1.6850 H         1 <0>         0.1277
     52 H14         7.7886   -5.2364   -2.4199 H         1 <0>         0.1265
     53 H15         7.3064   -4.0899   -0.2948 H         1 <0>         0.1177
     54 H16         5.7684   -3.7223    3.5543 H         1 <0>         0.1337
     55 H17         5.4173   -2.4586    5.6383 H         1 <0>         0.1220
     56 H18         3.5266   -0.8922    5.8246 H         1 <0>         0.1172
     57 H19         1.9875   -0.5888    3.9266 H         1 <0>         0.1170
     58 H20         2.3435   -1.8463    1.8397 H         1 <0>         0.1195
     59 H21         3.7655   -4.9034    3.4334 H         1 <0>         0.1407
     60 H22         2.6712   -6.4604    4.9906 H         1 <0>         0.1261
     61 H23         0.6599   -7.6939    4.2949 H         1 <0>         0.1238
     62 H24        -0.2702   -7.3809    2.0394 H         1 <0>         0.1266
     63 H25         0.7999   -5.8220    0.4675 H         1 <0>         0.1321
@<TRIPOS>BOND
     1    1    6 ar
     2    1    2 ar
     3    1   39 1
     4    2    3 ar
     5    2   40 1
     6    3    4 ar
     7    3   41 1
     8    4    5 ar
     9    4    7 1
    10    5    6 ar
    11    5   42 1
    12    6   43 1
    13    7    8 2
    14    7   44 1
    15    8    9 1
    16    8   45 1
    17    9   10 1
    18    9   46 1
    19    9   47 1
    20   10   11 1
    21   10   25 1
    22   10   31 1
    23   11   12 1
    24   11   48 1
    25   11   49 1
    26   12   17 ar
    27   12   13 ar
    28   13   14 ar
    29   13   50 1
    30   14   15 ar
    31   14   51 1
    32   15   16 ar
    33   15   18 1
    34   16   17 ar
    35   16   52 1
    36   17   53 1
    37   18   19 1
    38   18   20 1
    39   18   21 1
    40   21   22 2
    41   21   23 1
    42   21   24 1
    43   25   30 ar
    44   25   26 ar
    45   26   27 ar
    46   26   54 1
    47   27   28 ar
    48   27   55 1
    49   28   29 ar
    50   28   56 1
    51   29   30 ar
    52   29   57 1
    53   30   58 1
    54   31   32 2
    55   31   33 1
    56   33   38 ar
    57   33   34 ar
    58   34   35 ar
    59   34   59 1
    60   35   36 ar
    61   35   60 1
    62   36   37 ar
    63   36   61 1
    64   37   38 ar
    65   37   62 1
    66   38   63 1
@<TRIPOS>MOLECULE
CHEMBL24557
   59    63     0     0     0
SMALL
USER_CHARGES

@<TRIPOS>ATOM
      1 C1         -0.0187    1.5258    0.0104 C.3       1 <0>        -0.1545
      2 C2          0.0021   -0.0041    0.0020 C.3       1 <0>        -0.1243
      3 C3         -1.4333   -0.5336    0.0129 C.3       1 <0>        -0.1180
      4 C4         -1.4126   -2.0635    0.0045 C.3       1 <0>        -0.0503
      5 C5         -2.8264   -2.5851    0.0152 C.2       1 <0>         0.0456
      6 C6         -3.5547   -2.8497   -1.0780 C.2       1 <0>        -0.1683
      7 C7         -4.8548   -3.3318   -0.5967 C.ar      1 <0>        -0.1175
      8 C8         -6.0262   -3.7615   -1.2184 C.ar      1 <0>        -0.0723
      9 C9         -7.0914   -4.1574   -0.4578 C.ar      1 <0>        -0.1340
     10 C10        -7.0130   -4.1334    0.9272 C.ar      1 <0>        -0.0949
     11 C11        -5.8630   -3.7116    1.5596 C.ar      1 <0>        -0.1060
     12 C12        -4.7690   -3.3056    0.8054 C.ar      1 <0>         0.0512
     13 O1         -3.5378   -2.8579    1.1229 O.3       1 <0>        -0.1901
     14 C13        -3.1252   -2.6855   -2.5132 C.3       1 <0>        -0.0097
     15 C14        -2.4898   -3.9636   -2.9968 C.ar      1 <0>        -0.0706
     16 C15        -1.1283   -4.1559   -2.8468 C.ar      1 <0>        -0.1133
     17 C16        -0.5412   -5.3247   -3.2875 C.ar      1 <0>        -0.1068
     18 C17        -1.3228   -6.3119   -3.8844 C.ar      1 <0>        -0.0481
     19 C18        -2.6940   -6.1128   -4.0329 C.ar      1 <0>        -0.1069
     20 C19        -3.2713   -4.9424   -3.5838 C.ar      1 <0>        -0.1068
     21 C20        -0.6973   -7.5702   -4.3605 C.ar      1 <0>        -0.0667
     22 C21         0.6734   -7.7704   -4.2066 C.ar      1 <0>        -0.0699
     23 C22         1.2519   -8.9412   -4.6497 C.ar      1 <0>        -0.1328
     24 C23         0.4705   -9.9197   -5.2491 C.ar      1 <0>         0.1298
     25 C24        -0.8951   -9.7232   -5.4038 C.ar      1 <0>        -0.2002
     26 C25        -1.4802   -8.5568   -4.9574 C.ar      1 <0>        -0.0685
     27 O2          1.0434  -11.0719   -5.6855 O.3       1 <0>        -0.3249
     28 C26         0.1808  -12.0359   -6.2926 C.3       1 <0>         0.3035
     29 N1          0.9645  -13.2050   -6.6990 N.pl3     1 <0>        -0.3211
     30 C27         2.2893  -13.3760   -6.5341 C.2       1 <0>         0.1836
     31 N2          2.5821  -14.5516   -7.0345 N.2       1 <0>        -0.3041
     32 N3          1.4938  -15.0752   -7.4833 N.2       1 <0>        -0.0614
     33 N4          0.5135  -14.2666   -7.2771 N.2       1 <0>        -0.0841
     34 H1          1.0039    1.9031    0.0027 H         1 <0>         0.0562
     35 H2         -0.5459    1.8868   -0.8726 H         1 <0>         0.0548
     36 H3         -0.5289    1.8773    0.9072 H         1 <0>         0.0546
     37 H4          0.5123   -0.3556   -0.8948 H         1 <0>         0.0642
     38 H5          0.5293   -0.3651    0.8851 H         1 <0>         0.0645
     39 H6         -1.9435   -0.1821    0.9097 H         1 <0>         0.0683
     40 H7         -1.9605   -0.1726   -0.8702 H         1 <0>         0.0687
     41 H8         -0.9024   -2.4150   -0.8923 H         1 <0>         0.0969
     42 H9         -0.8854   -2.4246    0.8875 H         1 <0>         0.0863
     43 H10        -6.0923   -3.7813   -2.2962 H         1 <0>         0.1243
     44 H11        -7.9995   -4.4905   -0.9382 H         1 <0>         0.1292
     45 H12        -7.8619   -4.4481    1.5160 H         1 <0>         0.1351
     46 H13        -5.8127   -3.6965    2.6383 H         1 <0>         0.1315
     47 H14        -3.9951   -2.4566   -3.1288 H         1 <0>         0.0848
     48 H15        -2.4042   -1.8712   -2.5858 H         1 <0>         0.0855
     49 H16        -0.5234   -3.3900   -2.3844 H         1 <0>         0.1241
     50 H17         0.5220   -5.4737   -3.1702 H         1 <0>         0.1261
     51 H18        -3.3045   -6.8746   -4.4949 H         1 <0>         0.1248
     52 H19        -4.3346   -4.7888   -3.6944 H         1 <0>         0.1228
     53 H20         1.2819   -7.0092   -3.7411 H         1 <0>         0.1382
     54 H21         2.3140   -9.0968   -4.5307 H         1 <0>         0.1391
     55 H22        -1.5005  -10.4860   -5.8707 H         1 <0>         0.1328
     56 H23        -2.5432   -8.4062   -5.0743 H         1 <0>         0.1338
     57 H24        -0.5832  -12.3412   -5.5776 H         1 <0>         0.1135
     58 H25        -0.2963  -11.5960   -7.1684 H         1 <0>         0.1138
     59 H26         2.9777  -12.6796   -6.0786 H         1 <0>         0.2385
@<TRIPOS>BOND
     1    1    2 1
     2    1   34 1
     3    1   35 1
     4    1   36 1
     5    2    3 1
     6    2   37 1
     7    2   38 1
     8    3    4 1
     9    3   39 1
    10    3   40 1
    11    4    5 1
    12    4   41 1
    13    4   42 1
    14    5   13 1
    15    5    6 2
    16    6    7 1
    17    6   14 1
    18    7   12 ar
    19    7    8 ar
    20    8    9 ar
    21    8   43 1
    22    9   10 ar
    23    9   44 1
    24   10   11 ar
    25   10   45 1
    26   11   12 ar
    27   11   46 1
    28   12   13 1
    29   14   15 1
    30   14   47 1
    31   14   48 1
    32   15   20 ar
    33   15   16 ar
    34   16   17 ar
    35   16   49 1
    36   17   18 ar
    37   17   50 1
    38   18   19 ar
    39   18   21 1
    40   19   20 ar
    41   19   51 1
    42   20   52 1
    43   21   26 ar
    44   21   22 ar
    45   22   23 ar
    46   22   53 1
    47   23   24 ar
    48   23   54 1
    49   24   25 ar
    50   24   27 1
    51   25   26 ar
    52   25   55 1
    53   26   56 1
    54   27   28 1
    55   28   29 1
    56   28   57 1
    57   28   58 1
    58   29   33 1
    59   29   30 1
    60   30   31 2
    61   30   59 1
    62   31   32 1
    63   32   33 2
@<TRIPOS>MOLECULE
CHEMBL24501
   48    52     0     0     0
SMALL
USER_CHARGES

@<TRIPOS>ATOM
      1 C1         -0.0154    1.3812    0.0321 C.ar      1 <0>        -0.0830
      2 C2          1.1702    2.0948    0.0386 C.ar      1 <0>        -0.1338
      3 C3          2.3788    1.4303    0.0158 C.ar      1 <0>        -0.0562
      4 C4          2.4040    0.0346   -0.0132 C.ar      1 <0>        -0.1677
      5 C5          1.2040   -0.6792   -0.0191 C.ar      1 <0>        -0.0698
      6 C6          0.0024   -0.0022    0.0033 C.ar      1 <0>        -0.1329
      7 C7          3.6960   -0.6845   -0.0382 C.2       1 <0>         0.4724
      8 O1          4.7372   -0.0621   -0.1440 O.2       1 <0>        -0.4142
      9 C8          3.7231   -2.1430    0.0641 C.2       1 <0>        -0.0412
     10 C9          4.8665   -2.9195    0.1634 C.2       1 <0>        -0.0364
     11 C10         4.3946   -4.3099    0.2418 C.ar      1 <0>        -0.1328
     12 C11         5.0335   -5.5449    0.3531 C.ar      1 <0>        -0.0551
     13 C12         4.2901   -6.6909    0.4037 C.ar      1 <0>        -0.1355
     14 C13         2.9047   -6.6319    0.3449 C.ar      1 <0>        -0.0769
     15 C14         2.2557   -5.4213    0.2349 C.ar      1 <0>        -0.1124
     16 C15         2.9920   -4.2424    0.1817 C.ar      1 <0>         0.0713
     17 O2          2.6384   -2.9455    0.0828 O.3       1 <0>        -0.1714
     18 C16         6.2667   -2.4488    0.1854 C.ar      1 <0>        -0.0268
     19 C17         7.1325   -2.7808   -0.8602 C.ar      1 <0>        -0.0916
     20 C18         8.4367   -2.3419   -0.8387 C.ar      1 <0>        -0.1099
     21 C19         8.8948   -1.5656    0.2267 C.ar      1 <0>        -0.0346
     22 C20         8.0311   -1.2334    1.2713 C.ar      1 <0>        -0.1072
     23 C21         6.7249   -1.6665    1.2490 C.ar      1 <0>        -0.0768
     24 C22        10.2997   -1.0939    0.2490 C.ar      1 <0>        -0.0553
     25 C23        11.1631   -1.4202   -0.7966 C.ar      1 <0>        -0.0926
     26 C24        12.4692   -0.9794   -0.7730 C.ar      1 <0>        -0.1424
     27 C25        12.9254   -0.2114    0.2902 C.ar      1 <0>         0.1070
     28 C26        12.0684    0.1148    1.3330 C.ar      1 <0>        -0.1422
     29 C27        10.7595   -0.3179    1.3127 C.ar      1 <0>        -0.0923
     30 O3         14.2130    0.2214    0.3104 O.3       1 <0>        -0.4995
     31 H1         -0.9589    1.9063    0.0542 H         1 <0>         0.1296
     32 H2          1.1492    3.1743    0.0611 H         1 <0>         0.1320
     33 H3          3.3034    1.9884    0.0202 H         1 <0>         0.1358
     34 H4          1.2166   -1.7589   -0.0419 H         1 <0>         0.1444
     35 H5         -0.9265   -0.5530   -0.0013 H         1 <0>         0.1310
     36 H6          6.1113   -5.5954    0.3988 H         1 <0>         0.1312
     37 H7          4.7837   -7.6477    0.4896 H         1 <0>         0.1346
     38 H8          2.3291   -7.5448    0.3855 H         1 <0>         0.1402
     39 H9          1.1771   -5.3878    0.1904 H         1 <0>         0.1377
     40 H10         6.7784   -3.3819   -1.6846 H         1 <0>         0.1256
     41 H11         9.1061   -2.5987   -1.6465 H         1 <0>         0.1295
     42 H12         8.3865   -0.6326    2.0953 H         1 <0>         0.1291
     43 H13         6.0554   -1.4056    2.0553 H         1 <0>         0.1216
     44 H14        10.8090   -2.0178   -1.6236 H         1 <0>         0.1310
     45 H15        13.1384   -1.2320   -1.5822 H         1 <0>         0.1316
     46 H16        12.4264    0.7117    2.1588 H         1 <0>         0.1317
     47 H17        10.0923   -0.0601    2.1218 H         1 <0>         0.1310
     48 H18        14.3455    1.0814   -0.1114 H         1 <0>         0.3923
@<TRIPOS>BOND
     1    1    6 ar
     2    1    2 ar
     3    1   31 1
     4    2    3 ar
     5    2   32 1
     6    3    4 ar
     7    3   33 1
     8    4    5 ar
     9    4    7 1
    10    5    6 ar
    11    5   34 1
    12    6   35 1
    13    7    8 2
    14    7    9 1
    15    9   17 1
    16    9   10 2
    17   10   11 1
    18   10   18 1
    19   11   16 ar
    20   11   12 ar
    21   12   13 ar
    22   12   36 1
    23   13   14 ar
    24   13   37 1
    25   14   15 ar
    26   14   38 1
    27   15   16 ar
    28   15   39 1
    29   16   17 1
    30   18   23 ar
    31   18   19 ar
    32   19   20 ar
    33   19   40 1
    34   20   21 ar
    35   20   41 1
    36   21   22 ar
    37   21   24 1
    38   22   23 ar
    39   22   42 1
    40   23   43 1
    41   24   29 ar
    42   24   25 ar
    43   25   26 ar
    44   25   44 1
    45   26   27 ar
    46   26   45 1
    47   27   28 ar
    48   27   30 1
    49   28   29 ar
    50   28   46 1
    51   29   47 1
    52   30   48 1
@<TRIPOS>MOLECULE
CHEMBL383967
   31    33     0     0     0
SMALL
USER_CHARGES

@<TRIPOS>ATOM
      1 C1          0.2213    0.9908   -0.9662 C.ar      1 <0>        -0.0746
      2 C2          1.3897    1.6925   -0.9637 C.ar      1 <0>        -0.1086
      3 C3          2.3817    1.4139   -0.0135 C.ar      1 <0>         0.0376
      4 C4          2.1835    0.4172    0.9386 C.ar      1 <0>        -0.1117
      5 C5          0.9968   -0.3015    0.9435 C.ar      1 <0>         0.0956
      6 C6          0.0073   -0.0130   -0.0167 C.ar      1 <0>        -0.1080
      7 C7         -1.0995   -0.9314    0.2556 C.2       1 <0>        -0.2065
      8 C8         -0.7371   -1.6834    1.3083 C.2       1 <0>         0.0441
      9 N1          0.5116   -1.3216    1.7328 N.pl3     1 <0>        -0.5972
     10 H1          0.9852   -1.7234    2.4778 H         1 <0>         0.4139
     11 C9          3.6433    2.1808   -0.0225 C.2       1 <0>        -0.1342
     12 C10         3.8257    3.5518   -0.1059 C.2       1 <0>        -0.1123
     13 C11         5.1029    4.0492   -0.0968 C.2       1 <0>         0.1000
     14 C12         6.1656    3.1472   -0.0034 C.2       1 <0>        -0.1394
     15 S1          5.3200    1.5773    0.0794 S.3       1 <0>         0.1352
     16 C13         7.5490    3.4096    0.0246 C.2       1 <0>         0.4866
     17 O1          7.9907    4.6655   -0.0429 O.co2     1 <0>        -0.6349
     18 O2          8.4167    2.4021    0.1185 O.co2     1 <0>        -0.7113
     19 O3          5.3295    5.3851   -0.1769 O.3       1 <0>        -0.2664
     20 C14         5.3964    6.1068    1.0546 C.3       1 <0>         0.0204
     21 C15         5.6523    7.5643    0.7695 C.2       1 <0>         0.5129
     22 O4          5.7668    7.9493   -0.3817 O.co2     1 <0>        -0.6722
     23 O5          5.7448    8.3585    1.6899 O.co2     1 <0>        -0.7087
     24 Br1         2.3400    4.7150   -0.2307 Br        1 <0>        -0.0340
     25 H2         -0.5408    1.2131   -1.6985 H         1 <0>         0.1237
     26 H3          1.5523    2.4673   -1.6983 H         1 <0>         0.1307
     27 H4          2.9498    0.2046    1.6693 H         1 <0>         0.1248
     28 H5         -2.0312   -0.9929   -0.2871 H         1 <0>         0.1426
     29 H6         -1.3426   -2.4588    1.7538 H         1 <0>         0.1655
     30 H7          4.4523    6.0015    1.5892 H         1 <0>         0.0354
     31 H8          6.2063    5.7085    1.6657 H         1 <0>         0.0512
@<TRIPOS>BOND
     1    1    6 ar
     2    1    2 ar
     3    1   25 1
     4    2    3 ar
     5    2   26 1
     6    3    4 ar
     7    3   11 1
     8    4    5 ar
     9    4   27 1
    10    5    9 1
    11    5    6 ar
    12    6    7 1
    13    7    8 2
    14    7   28 1
    15    8    9 1
    16    8   29 1
    17    9   10 1
    18   11   15 1
    19   11   12 2
    20   12   13 1
    21   12   24 1
    22   13   14 2
    23   13   19 1
    24   14   15 1
    25   14   16 1
    26   16   17 2
    27   16   18 1
    28   19   20 1
    29   20   21 1
    30   20   30 1
    31   20   31 1
    32   21   22 2
    33   21   23 1
@<TRIPOS>MOLECULE
CHEMBL25231
   80    86     0     0     0
SMALL
USER_CHARGES

@<TRIPOS>ATOM
      1 C1          7.5233   -2.6657   -3.9077 C.ar      1 <0>        -0.1181
      2 C2          6.4092   -3.4180   -3.5858 C.ar      1 <0>        -0.1175
      3 C3          5.3690   -2.8450   -2.8784 C.ar      1 <0>        -0.0999
      4 C4          5.4431   -1.5196   -2.4925 C.ar      1 <0>        -0.0875
      5 C5          6.5576   -0.7675   -2.8136 C.ar      1 <0>        -0.1088
      6 C6          7.5972   -1.3402   -3.5222 C.ar      1 <0>        -0.1225
      7 C7          4.3087   -0.8946   -1.7222 C.3       1 <0>        -0.0057
      8 C8          4.6062   -0.9622   -0.2464 C.2       1 <0>         0.0550
      9 C9          4.1836   -1.9408    0.5875 C.2       1 <0>        -0.1258
     10 C10         4.7109   -1.5918    1.9195 C.ar      1 <0>        -0.1115
     11 C11         4.6328   -2.1783    3.1797 C.ar      1 <0>        -0.0672
     12 C12         5.2577   -1.5773    4.2506 C.ar      1 <0>        -0.1366
     13 C13         5.9609   -0.3944    4.0750 C.ar      1 <0>        -0.0959
     14 C14         6.0448    0.1958    2.8324 C.ar      1 <0>        -0.1086
     15 C15         5.4217   -0.3952    1.7397 C.ar      1 <0>         0.0525
     16 O1          5.3351   -0.0633    0.4354 O.3       1 <0>        -0.1880
     17 C16         3.3595   -3.1208    0.2345 C.ar      1 <0>        -0.0326
     18 C17         2.0405   -2.9498   -0.1867 C.ar      1 <0>        -0.1003
     19 C18         1.2749   -4.0466   -0.5152 C.ar      1 <0>        -0.1195
     20 C19         1.8182   -5.3281   -0.4269 C.ar      1 <0>        -0.0058
     21 C20         3.1369   -5.4993   -0.0059 C.ar      1 <0>        -0.1198
     22 C21         3.9044   -4.4024    0.3177 C.ar      1 <0>        -0.0934
     23 C22         0.9937   -6.5088   -0.7802 C.ar      1 <0>        -0.1168
     24 C23        -0.3232   -6.3391   -1.2063 C.ar      1 <0>        -0.0644
     25 C24        -1.0873   -7.4390   -1.5341 C.ar      1 <0>        -0.2012
     26 C25        -0.5470   -8.7146   -1.4397 C.ar      1 <0>         0.1836
     27 C26         0.7634   -8.8870   -1.0154 C.ar      1 <0>        -0.1185
     28 C27         1.5351   -7.7904   -0.6925 C.ar      1 <0>        -0.0624
     29 C28         1.3455  -10.2733   -0.9135 C.3       1 <0>        -0.0407
     30 C29         1.8474  -10.5315    0.5222 C.3       1 <0>        -0.1146
     31 C30         3.1358  -11.3692    0.3293 C.3       1 <0>        -0.1244
     32 C31         3.7733  -10.7308   -0.9297 C.3       1 <0>        -0.1231
     33 C32         2.5700  -10.4000   -1.8367 C.3       1 <0>        -0.1166
     34 O2         -1.3028   -9.7966   -1.7630 O.3       1 <0>        -0.2837
     35 C33        -2.6722   -9.5562   -2.0927 C.3       1 <0>         0.0229
     36 C34        -3.4931  -10.8166   -1.8125 C.3       1 <0>        -0.0638
     37 C35        -3.4837  -11.1035   -0.3331 C.ar      1 <0>        -0.0696
     38 C36        -2.4936  -11.9008    0.2100 C.ar      1 <0>        -0.1021
     39 C37        -2.4850  -12.1640    1.5671 C.ar      1 <0>        -0.1216
     40 C38        -3.4662  -11.6296    2.3810 C.ar      1 <0>        -0.1326
     41 C39        -4.4558  -10.8316    1.8380 C.ar      1 <0>        -0.1227
     42 C40        -4.4620  -10.5649    0.4817 C.ar      1 <0>        -0.1196
     43 C41        -2.7822   -9.1994   -3.5528 C.2       1 <0>         0.4815
     44 O3         -1.7952   -9.2437   -4.2672 O.co2     1 <0>        -0.6691
     45 O4         -3.8582   -8.8665   -4.0196 O.co2     1 <0>        -0.6901
     46 H1          8.3380   -3.1146   -4.4565 H         1 <0>         0.1211
     47 H2          6.3514   -4.4535   -3.8873 H         1 <0>         0.1243
     48 H3          4.4983   -3.4326   -2.6275 H         1 <0>         0.1256
     49 H4          6.6153    0.2680   -2.5124 H         1 <0>         0.1211
     50 H5          8.4677   -0.7525   -3.7735 H         1 <0>         0.1210
     51 H6          4.1958    0.1471   -2.0227 H         1 <0>         0.0954
     52 H7          3.3857   -1.4353   -1.9319 H         1 <0>         0.1100
     53 H8          4.0852   -3.0990    3.3172 H         1 <0>         0.1276
     54 H9          5.1995   -2.0285    5.2301 H         1 <0>         0.1292
     55 H10         6.4473    0.0689    4.9207 H         1 <0>         0.1337
     56 H11         6.5950    1.1167    2.7077 H         1 <0>         0.1302
     57 H12         1.6197   -1.9575   -0.2548 H         1 <0>         0.1205
     58 H13         0.2538   -3.9143   -0.8409 H         1 <0>         0.1270
     59 H14         3.5574   -6.4917    0.0625 H         1 <0>         0.1250
     60 H15         4.9269   -4.5347    0.6394 H         1 <0>         0.1185
     61 H16        -0.7442   -5.3472   -1.2792 H         1 <0>         0.1204
     62 H17        -2.1072   -7.3082   -1.8642 H         1 <0>         0.1289
     63 H18         2.5561   -7.9248   -0.3670 H         1 <0>         0.1240
     64 H19         0.5941  -11.0144   -1.1860 H         1 <0>         0.0866
     65 H20         2.0758   -9.5899    1.0216 H         1 <0>         0.0657
     66 H21         1.1070  -11.0955    1.0895 H         1 <0>         0.0632
     67 H22         3.7959  -11.2666    1.1907 H         1 <0>         0.0612
     68 H23         2.8925  -12.4165    0.1503 H         1 <0>         0.0649
     69 H24         4.3127   -9.8214   -0.6648 H         1 <0>         0.0611
     70 H25         4.4384  -11.4403   -1.4221 H         1 <0>         0.0609
     71 H26         2.4132  -11.2032   -2.5567 H         1 <0>         0.0643
     72 H27         2.7432   -9.4588   -2.3584 H         1 <0>         0.0664
     73 H28        -3.0525   -8.7330   -1.4879 H         1 <0>         0.0662
     74 H29        -4.5194  -10.6635   -2.1464 H         1 <0>         0.0955
     75 H30        -3.0585  -11.6600   -2.3490 H         1 <0>         0.0780
     76 H31        -1.7270  -12.3183   -0.4259 H         1 <0>         0.1216
     77 H32        -1.7119  -12.7874    1.9913 H         1 <0>         0.1164
     78 H33        -3.4599  -11.8359    3.4411 H         1 <0>         0.1147
     79 H34        -5.2226  -10.4144    2.4739 H         1 <0>         0.1166
     80 H35        -5.2330   -9.9384    0.0580 H         1 <0>         0.1207
@<TRIPOS>BOND
     1    1    6 ar
     2    1    2 ar
     3    1   46 1
     4    2    3 ar
     5    2   47 1
     6    3    4 ar
     7    3   48 1
     8    4    5 ar
     9    4    7 1
    10    5    6 ar
    11    5   49 1
    12    6   50 1
    13    7    8 1
    14    7   51 1
    15    7   52 1
    16    8   16 1
    17    8    9 2
    18    9   10 1
    19    9   17 1
    20   10   15 ar
    21   10   11 ar
    22   11   12 ar
    23   11   53 1
    24   12   13 ar
    25   12   54 1
    26   13   14 ar
    27   13   55 1
    28   14   15 ar
    29   14   56 1
    30   15   16 1
    31   17   22 ar
    32   17   18 ar
    33   18   19 ar
    34   18   57 1
    35   19   20 ar
    36   19   58 1
    37   20   21 ar
    38   20   23 1
    39   21   22 ar
    40   21   59 1
    41   22   60 1
    42   23   28 ar
    43   23   24 ar
    44   24   25 ar
    45   24   61 1
    46   25   26 ar
    47   25   62 1
    48   26   27 ar
    49   26   34 1
    50   27   28 ar
    51   27   29 1
    52   28   63 1
    53   29   33 1
    54   29   30 1
    55   29   64 1
    56   30   31 1
    57   30   65 1
    58   30   66 1
    59   31   32 1
    60   31   67 1
    61   31   68 1
    62   32   33 1
    63   32   69 1
    64   32   70 1
    65   33   71 1
    66   33   72 1
    67   34   35 1
    68   35   36 1
    69   35   43 1
    70   35   73 1
    71   36   37 1
    72   36   74 1
    73   36   75 1
    74   37   42 ar
    75   37   38 ar
    76   38   39 ar
    77   38   76 1
    78   39   40 ar
    79   39   77 1
    80   40   41 ar
    81   40   78 1
    82   41   42 ar
    83   41   79 1
    84   42   80 1
    85   43   44 2
    86   43   45 1
@<TRIPOS>MOLECULE
CHEMBL25231__1
   80    86     0     0     0
SMALL
USER_CHARGES

@<TRIPOS>ATOM
      1 C1          6.8486   -1.6290   -3.0702 C.ar      1 <0>        -0.1185
      2 C2          5.8620   -2.5565   -2.7920 C.ar      1 <0>        -0.1181
      3 C3          4.8492   -2.2431   -1.9049 C.ar      1 <0>        -0.1007
      4 C4          4.8232   -1.0025   -1.2957 C.ar      1 <0>        -0.0869
      5 C5          5.8102   -0.0754   -1.5733 C.ar      1 <0>        -0.1085
      6 C6          6.8223   -0.3882   -2.4615 C.ar      1 <0>        -0.1222
      7 C7          3.7185   -0.6606   -0.3294 C.3       1 <0>        -0.0052
      8 C8          4.1556   -0.9974    1.0729 C.2       1 <0>         0.0535
      9 C9          3.8746   -2.1536    1.7179 C.2       1 <0>        -0.1249
     10 C10         4.5005   -2.0363    3.0478 C.ar      1 <0>        -0.1119
     11 C11         4.5768   -2.8670    4.1624 C.ar      1 <0>        -0.0667
     12 C12         5.2596   -2.4437    5.2818 C.ar      1 <0>        -0.1362
     13 C13         5.8679   -1.1970    5.2991 C.ar      1 <0>        -0.0954
     14 C14         5.7987   -0.3658    4.2019 C.ar      1 <0>        -0.1092
     15 C15         5.1150   -0.7748    3.0632 C.ar      1 <0>         0.0526
     16 O1          4.8869   -0.1971    1.8660 O.3       1 <0>        -0.1881
     17 C16         3.0969   -3.3015    1.1951 C.ar      1 <0>        -0.0333
     18 C17         1.7291   -3.1665    0.9556 C.ar      1 <0>        -0.0997
     19 C18         1.0067   -4.2335    0.4692 C.ar      1 <0>        -0.1195
     20 C19         1.6424   -5.4489    0.2161 C.ar      1 <0>        -0.0057
     21 C20         3.0098   -5.5841    0.4555 C.ar      1 <0>        -0.1200
     22 C21         3.7336   -4.5158    0.9368 C.ar      1 <0>        -0.0936
     23 C22         0.8642   -6.5976   -0.3071 C.ar      1 <0>        -0.1167
     24 C23        -0.5019   -6.4626   -0.5519 C.ar      1 <0>        -0.0643
     25 C24        -1.2226   -7.5326   -1.0384 C.ar      1 <0>        -0.2025
     26 C25        -0.5896   -8.7438   -1.2840 C.ar      1 <0>         0.1830
     27 C26         0.7701   -8.8816   -1.0409 C.ar      1 <0>        -0.1180
     28 C27         1.4980   -7.8131   -0.5606 C.ar      1 <0>        -0.0624
     29 C28         1.4529  -10.1982   -1.3080 C.3       1 <0>        -0.0411
     30 C29         2.1357  -10.7097   -0.0227 C.3       1 <0>        -0.1164
     31 C30         3.4466  -11.3649   -0.5239 C.3       1 <0>        -0.1246
     32 C31         3.8875  -10.4167   -1.6665 C.3       1 <0>        -0.1231
     33 C32         2.5667  -10.0119   -2.3531 C.3       1 <0>        -0.1145
     34 O2         -1.3028   -9.7966   -1.7630 O.3       1 <0>        -0.2831
     35 C33        -2.6722   -9.5562   -2.0927 C.3       1 <0>         0.0229
     36 C34        -3.1160  -10.5401   -3.1771 C.3       1 <0>        -0.0643
     37 C35        -2.3474  -10.2706   -4.4450 C.ar      1 <0>        -0.0695
     38 C36        -2.8401   -9.3739   -5.3746 C.ar      1 <0>        -0.1196
     39 C37        -2.1350   -9.1266   -6.5376 C.ar      1 <0>        -0.1227
     40 C38        -0.9371   -9.7757   -6.7709 C.ar      1 <0>        -0.1326
     41 C39        -0.4439  -10.6718   -5.8409 C.ar      1 <0>        -0.1215
     42 C40        -1.1469  -10.9158   -4.6759 C.ar      1 <0>        -0.1020
     43 C41        -3.5251   -9.7440   -0.8646 C.2       1 <0>         0.4817
     44 O3         -4.7183   -9.4969   -0.9073 O.co2     1 <0>        -0.6901
     45 O4         -3.0219  -10.1429    0.1718 O.co2     1 <0>        -0.6693
     46 H1          7.6423   -1.8754   -3.7599 H         1 <0>         0.1209
     47 H2          5.8823   -3.5257   -3.2679 H         1 <0>         0.1235
     48 H3          4.0780   -2.9675   -1.6880 H         1 <0>         0.1255
     49 H4          5.7897    0.8940   -1.0977 H         1 <0>         0.1215
     50 H5          7.5932    0.3363   -2.6786 H         1 <0>         0.1213
     51 H6          3.4955    0.4044   -0.3946 H         1 <0>         0.0951
     52 H7          2.8263   -1.2346   -0.5796 H         1 <0>         0.1098
     53 H8          4.1033   -3.8376    4.1498 H         1 <0>         0.1281
     54 H9          5.3212   -3.0846    6.1489 H         1 <0>         0.1296
     55 H10         6.4007   -0.8744    6.1813 H         1 <0>         0.1339
     56 H11         6.2761    0.6027    4.2269 H         1 <0>         0.1302
     57 H12         1.2368   -2.2255    1.1519 H         1 <0>         0.1206
     58 H13        -0.0522   -4.1291    0.2841 H         1 <0>         0.1270
     59 H14         3.5018   -6.5253    0.2594 H         1 <0>         0.1251
     60 H15         4.7933   -4.6192    1.1180 H         1 <0>         0.1187
     61 H16        -0.9949   -5.5210   -0.3604 H         1 <0>         0.1205
     62 H17        -2.2807   -7.4287   -1.2282 H         1 <0>         0.1291
     63 H18         2.5568   -7.9194   -0.3762 H         1 <0>         0.1241
     64 H19         0.7269  -10.9299   -1.6624 H         1 <0>         0.0870
     65 H20         2.3565   -9.8795    0.6483 H         1 <0>         0.0664
     66 H21         1.5069  -11.4474    0.4758 H         1 <0>         0.0673
     67 H22         4.1944  -11.3884    0.2688 H         1 <0>         0.0619
     68 H23         3.2557  -12.3677   -0.9062 H         1 <0>         0.0649
     69 H24         4.3912   -9.5391   -1.2610 H         1 <0>         0.0612
     70 H25         4.5371  -10.9405   -2.3677 H         1 <0>         0.0601
     71 H26         2.3817  -10.6538   -3.2144 H         1 <0>         0.0616
     72 H27         2.6134   -8.9692   -2.6672 H         1 <0>         0.0640
     73 H28        -2.7838   -8.5361   -2.4601 H         1 <0>         0.0668
     74 H29        -2.9216  -11.5597   -2.8442 H         1 <0>         0.0780
     75 H30        -4.1825  -10.4165   -3.3655 H         1 <0>         0.0955
     76 H31        -3.7760   -8.8667   -5.1923 H         1 <0>         0.1206
     77 H32        -2.5203   -8.4265   -7.2641 H         1 <0>         0.1165
     78 H33        -0.3866   -9.5831   -7.6799 H         1 <0>         0.1147
     79 H34         0.4918  -11.1792   -6.0234 H         1 <0>         0.1163
     80 H35        -0.7598  -11.6131   -3.9477 H         1 <0>         0.1215
@<TRIPOS>BOND
     1    1    6 ar
     2    1    2 ar
     3    1   46 1
     4    2    3 ar
     5    2   47 1
     6    3    4 ar
     7    3   48 1
     8    4    5 ar
     9    4    7 1
    10    5    6 ar
    11    5   49 1
    12    6   50 1
    13    7    8 1
    14    7   51 1
    15    7   52 1
    16    8   16 1
    17    8    9 2
    18    9   10 1
    19    9   17 1
    20   10   15 ar
    21   10   11 ar
    22   11   12 ar
    23   11   53 1
    24   12   13 ar
    25   12   54 1
    26   13   14 ar
    27   13   55 1
    28   14   15 ar
    29   14   56 1
    30   15   16 1
    31   17   22 ar
    32   17   18 ar
    33   18   19 ar
    34   18   57 1
    35   19   20 ar
    36   19   58 1
    37   20   21 ar
    38   20   23 1
    39   21   22 ar
    40   21   59 1
    41   22   60 1
    42   23   28 ar
    43   23   24 ar
    44   24   25 ar
    45   24   61 1
    46   25   26 ar
    47   25   62 1
    48   26   27 ar
    49   26   34 1
    50   27   28 ar
    51   27   29 1
    52   28   63 1
    53   29   33 1
    54   29   30 1
    55   29   64 1
    56   30   31 1
    57   30   65 1
    58   30   66 1
    59   31   32 1
    60   31   67 1
    61   31   68 1
    62   32   33 1
    63   32   69 1
    64   32   70 1
    65   33   71 1
    66   33   72 1
    67   34   35 1
    68   35   36 1
    69   35   43 1
    70   35   73 1
    71   36   37 1
    72   36   74 1
    73   36   75 1
    74   37   42 ar
    75   37   38 ar
    76   38   39 ar
    77   38   76 1
    78   39   40 ar
    79   39   77 1
    80   40   41 ar
    81   40   78 1
    82   41   42 ar
    83   41   79 1
    84   42   80 1
    85   43   44 2
    86   43   45 1
@<TRIPOS>MOLECULE
CHEMBL278862
   73    78     0     0     0
SMALL
USER_CHARGES

@<TRIPOS>ATOM
      1 C1          0.3557    1.0833   -0.2977 C.3       1 <0>        -0.0984
      2 C2          0.3038   -0.4227   -0.3068 C.ar      1 <0>        -0.0699
      3 C3          0.4939   -1.1113   -1.4863 C.ar      1 <0>        -0.1079
      4 C4          0.4462   -2.5047   -1.4938 C.ar      1 <0>        -0.0721
      5 C5          0.2062   -3.1975   -0.3079 C.ar      1 <0>        -0.1072
      6 C6          0.0169   -2.5030    0.8683 C.ar      1 <0>        -0.1181
      7 C7          0.0702   -1.1157    0.8734 C.ar      1 <0>         0.1278
      8 O1         -0.1116   -0.4345    2.0349 O.3       1 <0>        -0.3130
      9 C8          0.9443   -0.4968    2.9957 C.3       1 <0>         0.0400
     10 C9          0.3771   -0.2438    4.3940 C.3       1 <0>        -0.0667
     11 C10        -0.5647   -1.3607    4.7637 C.ar      1 <0>        -0.0631
     12 C11        -1.9072   -1.2656    4.4481 C.ar      1 <0>        -0.1036
     13 C12        -2.7711   -2.2901    4.7872 C.ar      1 <0>        -0.1225
     14 C13        -2.2924   -3.4098    5.4415 C.ar      1 <0>        -0.1332
     15 C14        -0.9497   -3.5052    5.7562 C.ar      1 <0>        -0.1213
     16 C15        -0.0851   -2.4827    5.4133 C.ar      1 <0>        -0.1204
     17 C16         1.9775    0.5525    2.6753 C.2       1 <0>         0.4771
     18 O2          1.7395    1.4071    1.8390 O.co2     1 <0>        -0.6656
     19 O3          3.0515    0.5467    3.2525 O.co2     1 <0>        -0.6957
     20 C17        -0.2431   -3.2510    2.1505 C.3       1 <0>        -0.1172
     21 C18         0.6498   -3.2483   -2.7604 C.ar      1 <0>        -0.0162
     22 C19         0.8950   -2.5539   -3.9450 C.ar      1 <0>        -0.1135
     23 C20         1.0841   -3.2444   -5.1216 C.ar      1 <0>        -0.0937
     24 C21         1.0304   -4.6385   -5.1285 C.ar      1 <0>        -0.0266
     25 C22         0.7851   -5.3329   -3.9436 C.ar      1 <0>        -0.1033
     26 C23         0.6017   -4.6422   -2.7661 C.ar      1 <0>        -0.1150
     27 C24         1.2334   -5.3815   -6.3945 C.2       1 <0>        -0.1270
     28 C25         0.3411   -5.3976   -7.5682 C.ar      1 <0>        -0.1114
     29 C26        -0.8743   -4.7909   -7.8731 C.ar      1 <0>        -0.0673
     30 C27        -1.4625   -5.0216   -9.0976 C.ar      1 <0>        -0.1362
     31 C28        -0.8480   -5.8540  -10.0218 C.ar      1 <0>        -0.0958
     32 C29         0.3549   -6.4605   -9.7311 C.ar      1 <0>        -0.1086
     33 C30         0.9645   -6.2396   -8.5018 C.ar      1 <0>         0.0524
     34 O4          2.1111   -6.6828   -7.9471 O.3       1 <0>        -0.1883
     35 C31         2.2787   -6.1801   -6.7128 C.2       1 <0>         0.0554
     36 C32         3.4548   -6.4651   -5.8148 C.3       1 <0>        -0.0044
     37 C33         4.4990   -5.3943   -5.9996 C.ar      1 <0>        -0.0884
     38 C34         5.4122   -5.4904   -7.0329 C.ar      1 <0>        -0.1098
     39 C35         6.3700   -4.5082   -7.2024 C.ar      1 <0>        -0.1226
     40 C36         6.4144   -3.4297   -6.3388 C.ar      1 <0>        -0.1169
     41 C37         5.5007   -3.3332   -5.3060 C.ar      1 <0>        -0.1165
     42 C38         4.5402   -4.3132   -5.1391 C.ar      1 <0>        -0.0983
     43 H1          1.3795    1.4105   -0.1165 H         1 <0>         0.1027
     44 H2          0.0176    1.4644   -1.2614 H         1 <0>         0.0359
     45 H3         -0.2926    1.4645    0.4913 H         1 <0>         0.0737
     46 H4          0.6793   -0.5719   -2.4034 H         1 <0>         0.1225
     47 H5          0.1683   -4.2768   -0.3105 H         1 <0>         0.1196
     48 H6          1.4065   -1.4834    2.9641 H         1 <0>         0.0549
     49 H7          1.1934   -0.2031    5.1153 H         1 <0>         0.0907
     50 H8         -0.1620    0.7035    4.4015 H         1 <0>         0.0776
     51 H9         -2.2811   -0.3908    3.9370 H         1 <0>         0.1224
     52 H10        -3.8201   -2.2156    4.5414 H         1 <0>         0.1159
     53 H11        -2.9675   -4.2099    5.7071 H         1 <0>         0.1141
     54 H12        -0.5758   -4.3799    6.2677 H         1 <0>         0.1159
     55 H13         0.9646   -2.5589    5.6559 H         1 <0>         0.1198
     56 H14         0.7052   -3.4755    2.6388 H         1 <0>         0.0625
     57 H15        -0.8557   -2.6375    2.8112 H         1 <0>         0.0846
     58 H16        -0.7668   -4.1809    1.9289 H         1 <0>         0.0574
     59 H17         0.9362   -1.4747   -3.9396 H         1 <0>         0.1280
     60 H18         1.2736   -2.7066   -6.0388 H         1 <0>         0.1197
     61 H19         0.7435   -6.4120   -3.9488 H         1 <0>         0.1208
     62 H20         0.4163   -5.1799   -1.8480 H         1 <0>         0.1267
     63 H21        -1.3536   -4.1433   -7.1539 H         1 <0>         0.1277
     64 H22        -2.4053   -4.5531   -9.3385 H         1 <0>         0.1295
     65 H23        -1.3173   -6.0288  -10.9787 H         1 <0>         0.1339
     66 H24         0.8239   -7.1066  -10.4584 H         1 <0>         0.1304
     67 H25         3.1247   -6.4753   -4.7760 H         1 <0>         0.1082
     68 H26         3.8804   -7.4355   -6.0703 H         1 <0>         0.0948
     69 H27         5.3775   -6.3330   -7.7076 H         1 <0>         0.1204
     70 H28         7.0839   -4.5836   -8.0093 H         1 <0>         0.1210
     71 H29         7.1632   -2.6627   -6.4708 H         1 <0>         0.1216
     72 H30         5.5356   -2.4907   -4.6311 H         1 <0>         0.1253
     73 H31         3.8240   -4.2359   -4.3345 H         1 <0>         0.1249
@<TRIPOS>BOND
     1    1    2 1
     2    1   43 1
     3    1   44 1
     4    1   45 1
     5    2    7 ar
     6    2    3 ar
     7    3    4 ar
     8    3   46 1
     9    4    5 ar
    10    4   21 1
    11    5    6 ar
    12    5   47 1
    13    6    7 ar
    14    6   20 1
    15    7    8 1
    16    8    9 1
    17    9   10 1
    18    9   17 1
    19    9   48 1
    20   10   11 1
    21   10   49 1
    22   10   50 1
    23   11   16 ar
    24   11   12 ar
    25   12   13 ar
    26   12   51 1
    27   13   14 ar
    28   13   52 1
    29   14   15 ar
    30   14   53 1
    31   15   16 ar
    32   15   54 1
    33   16   55 1
    34   17   18 2
    35   17   19 1
    36   20   56 1
    37   20   57 1
    38   20   58 1
    39   21   26 ar
    40   21   22 ar
    41   22   23 ar
    42   22   59 1
    43   23   24 ar
    44   23   60 1
    45   24   25 ar
    46   24   27 1
    47   25   26 ar
    48   25   61 1
    49   26   62 1
    50   27   35 2
    51   27   28 1
    52   28   33 ar
    53   28   29 ar
    54   29   30 ar
    55   29   63 1
    56   30   31 ar
    57   30   64 1
    58   31   32 ar
    59   31   65 1
    60   32   33 ar
    61   32   66 1
    62   33   34 1
    63   34   35 1
    64   35   36 1
    65   36   37 1
    66   36   67 1
    67   36   68 1
    68   37   42 ar
    69   37   38 ar
    70   38   39 ar
    71   38   69 1
    72   39   40 ar
    73   39   70 1
    74   40   41 ar
    75   40   71 1
    76   41   42 ar
    77   41   72 1
    78   42   73 1
@<TRIPOS>MOLECULE
CHEMBL278862__1
   73    78     0     0     0
SMALL
USER_CHARGES

@<TRIPOS>ATOM
      1 C1         -0.7531    1.2308   -0.1439 C.3       1 <0>        -0.1155
      2 C2         -0.5764   -0.2455   -0.3895 C.ar      1 <0>        -0.1189
      3 C3         -0.7953   -0.7654   -1.6478 C.ar      1 <0>        -0.1067
      4 C4         -0.6311   -2.1313   -1.8743 C.ar      1 <0>        -0.0725
      5 C5         -0.2459   -2.9672   -0.8270 C.ar      1 <0>        -0.1075
      6 C6         -0.0285   -2.4411    0.4290 C.ar      1 <0>        -0.0709
      7 C7         -0.1877   -1.0797    0.6500 C.ar      1 <0>         0.1284
      8 O1          0.0322   -0.5636    1.8875 O.3       1 <0>        -0.3123
      9 C8          1.1998    0.2429    2.0560 C.3       1 <0>         0.0396
     10 C9          0.9781    1.2274    3.2059 C.3       1 <0>        -0.0670
     11 C10        -0.1216    2.1900    2.8382 C.ar      1 <0>        -0.0627
     12 C11         0.1824    3.3701    2.1858 C.ar      1 <0>        -0.1205
     13 C12        -0.8263    4.2531    1.8484 C.ar      1 <0>        -0.1210
     14 C13        -2.1391    3.9556    2.1631 C.ar      1 <0>        -0.1332
     15 C14        -2.4432    2.7750    2.8147 C.ar      1 <0>        -0.1226
     16 C15        -1.4349    1.8901    3.1482 C.ar      1 <0>        -0.1037
     17 C16         2.3793   -0.6406    2.3714 C.2       1 <0>         0.4777
     18 O2          2.2076   -1.8229    2.6144 O.co2     1 <0>        -0.6659
     19 O3          3.5052   -0.1729    2.3836 O.co2     1 <0>        -0.6957
     20 C17         0.3874   -3.3440    1.5616 C.3       1 <0>        -0.0982
     21 C18        -0.8661   -2.6938   -3.2260 C.ar      1 <0>        -0.0164
     22 C19        -1.2463   -1.8553   -4.2737 C.ar      1 <0>        -0.1146
     23 C20        -1.4647   -2.3775   -5.5293 C.ar      1 <0>        -0.0950
     24 C21        -1.3055   -3.7454   -5.7531 C.ar      1 <0>        -0.0260
     25 C22        -0.9252   -4.5839   -4.7049 C.ar      1 <0>        -0.1032
     26 C23        -0.7014   -4.0604   -3.4508 C.ar      1 <0>        -0.1134
     27 C24        -1.5409   -4.3076   -7.1038 C.2       1 <0>        -0.1270
     28 C25        -2.8185   -4.3493   -7.8386 C.ar      1 <0>        -0.1114
     29 C26        -4.1147   -3.9252   -7.5587 C.ar      1 <0>        -0.0676
     30 C27        -5.1115   -4.1214   -8.4895 C.ar      1 <0>        -0.1363
     31 C28        -4.8262   -4.7383   -9.6989 C.ar      1 <0>        -0.0958
     32 C29        -3.5470   -5.1627   -9.9870 C.ar      1 <0>        -0.1084
     33 C30        -2.5277   -4.9731   -9.0616 C.ar      1 <0>         0.0524
     34 O4         -1.2132   -5.2745   -9.0614 O.3       1 <0>        -0.1881
     35 C31        -0.6260   -4.8828   -7.9186 C.2       1 <0>         0.0556
     36 C32         0.8343   -5.0601   -7.5911 C.3       1 <0>        -0.0052
     37 C33         1.5904   -3.8151   -7.9773 C.ar      1 <0>        -0.0877
     38 C34         2.0224   -3.6448   -9.2794 C.ar      1 <0>        -0.1095
     39 C35         2.7161   -2.5028   -9.6337 C.ar      1 <0>        -0.1227
     40 C36         2.9773   -1.5308   -8.6861 C.ar      1 <0>        -0.1173
     41 C37         2.5445   -1.7007   -7.3843 C.ar      1 <0>        -0.1169
     42 C38         1.8472   -2.8408   -7.0309 C.ar      1 <0>        -0.0980
     43 H1          0.2119    1.7309   -0.2261 H         1 <0>         0.0634
     44 H2         -1.4399    1.6425   -0.8834 H         1 <0>         0.0564
     45 H3         -1.1592    1.3868    0.8556 H         1 <0>         0.0835
     46 H4         -1.0939   -0.1154   -2.4569 H         1 <0>         0.1193
     47 H5         -0.1182   -4.0258   -0.9993 H         1 <0>         0.1228
     48 H6          1.3953    0.7956    1.1371 H         1 <0>         0.0554
     49 H7          0.6954    0.6789    4.1045 H         1 <0>         0.0773
     50 H8          1.8982    1.7811    3.3927 H         1 <0>         0.0908
     51 H9          1.2081    3.6025    1.9399 H         1 <0>         0.1197
     52 H10        -0.5887    5.1754    1.3393 H         1 <0>         0.1158
     53 H11        -2.9271    4.6458    1.9002 H         1 <0>         0.1140
     54 H12        -3.4688    2.5428    3.0609 H         1 <0>         0.1159
     55 H13        -1.6729    0.9660    3.6540 H         1 <0>         0.1222
     56 H14         1.4751   -3.4041    1.5977 H         1 <0>         0.1012
     57 H15         0.0142   -2.9412    2.5032 H         1 <0>         0.0737
     58 H16        -0.0264   -4.3399    1.4031 H         1 <0>         0.0369
     59 H17        -1.3699   -0.7965   -4.1003 H         1 <0>         0.1259
     60 H18        -1.7594   -1.7283   -6.3404 H         1 <0>         0.1190
     61 H19        -0.8019   -5.6428   -4.8780 H         1 <0>         0.1216
     62 H20        -0.4027   -4.7088   -2.6404 H         1 <0>         0.1288
     63 H21        -4.3377   -3.4455   -6.6171 H         1 <0>         0.1276
     64 H22        -6.1184   -3.7941   -8.2767 H         1 <0>         0.1293
     65 H23        -5.6146   -4.8878  -10.4218 H         1 <0>         0.1340
     66 H24        -3.3367   -5.6418  -10.9318 H         1 <0>         0.1305
     67 H25         0.9479   -5.2370   -6.5215 H         1 <0>         0.1089
     68 H26         1.2299   -5.9118   -8.1443 H         1 <0>         0.0953
     69 H27         1.8183   -4.4042  -10.0197 H         1 <0>         0.1207
     70 H28         3.0542   -2.3701  -10.6508 H         1 <0>         0.1210
     71 H29         3.5198   -0.6389   -8.9628 H         1 <0>         0.1212
     72 H30         2.7489   -0.9415   -6.6439 H         1 <0>         0.1244
     73 H31         1.5058   -2.9718   -6.0147 H         1 <0>         0.1251
@<TRIPOS>BOND
     1    1    2 1
     2    1   43 1
     3    1   44 1
     4    1   45 1
     5    2    7 ar
     6    2    3 ar
     7    3    4 ar
     8    3   46 1
     9    4    5 ar
    10    4   21 1
    11    5    6 ar
    12    5   47 1
    13    6    7 ar
    14    6   20 1
    15    7    8 1
    16    8    9 1
    17    9   10 1
    18    9   17 1
    19    9   48 1
    20   10   11 1
    21   10   49 1
    22   10   50 1
    23   11   16 ar
    24   11   12 ar
    25   12   13 ar
    26   12   51 1
    27   13   14 ar
    28   13   52 1
    29   14   15 ar
    30   14   53 1
    31   15   16 ar
    32   15   54 1
    33   16   55 1
    34   17   18 2
    35   17   19 1
    36   20   56 1
    37   20   57 1
    38   20   58 1
    39   21   26 ar
    40   21   22 ar
    41   22   23 ar
    42   22   59 1
    43   23   24 ar
    44   23   60 1
    45   24   25 ar
    46   24   27 1
    47   25   26 ar
    48   25   61 1
    49   26   62 1
    50   27   35 2
    51   27   28 1
    52   28   33 ar
    53   28   29 ar
    54   29   30 ar
    55   29   63 1
    56   30   31 ar
    57   30   64 1
    58   31   32 ar
    59   31   65 1
    60   32   33 ar
    61   32   66 1
    62   33   34 1
    63   34   35 1
    64   35   36 1
    65   36   37 1
    66   36   67 1
    67   36   68 1
    68   37   42 ar
    69   37   38 ar
    70   38   39 ar
    71   38   69 1
    72   39   40 ar
    73   39   70 1
    74   40   41 ar
    75   40   71 1
    76   41   42 ar
    77   41   72 1
    78   42   73 1
@<TRIPOS>MOLECULE
CHEMBL211033
   66    71     0     0     0
SMALL
USER_CHARGES

@<TRIPOS>ATOM
      1 C1         -1.3756   -1.1835    0.8012 C.ar      1 <0>        -0.1078
      2 C2         -0.4898   -0.1606    0.5141 C.ar      1 <0>        -0.1169
      3 C3          0.8565   -0.4295    0.3729 C.ar      1 <0>        -0.0868
      4 C4          1.3229   -1.7342    0.5201 C.ar      1 <0>        -0.0526
      5 C5          0.4262   -2.7607    0.8092 C.ar      1 <0>        -0.0978
      6 C6         -0.9181   -2.4805    0.9482 C.ar      1 <0>        -0.1245
      7 C7          2.7693   -2.0295    0.3689 C.ar      1 <0>         0.0457
      8 C8          3.6814   -0.9896    0.2012 C.ar      1 <0>        -0.1329
      9 C9          5.0256   -1.2699    0.0616 C.ar      1 <0>        -0.0076
     10 C10         5.4678   -2.5803    0.0874 C.ar      1 <0>        -0.6851
     11 C11         4.5666   -3.6165    0.2532 C.ar      1 <0>        -0.0239
     12 C12         3.2209   -3.3473    0.4000 C.ar      1 <0>        -0.1340
     13 S1          7.1852   -2.9309   -0.0920 S.o2      1 <0>         2.6889
     14 O1          7.2767   -4.2075   -0.7092 O.2       1 <0>        -0.9568
     15 O2          7.7804   -1.7689   -0.6532 O.2       1 <0>        -0.9537
     16 N1          7.8131   -3.0955    1.4315 N.pl3     1 <0>        -1.0979
     17 C13         7.2990   -4.1346    2.3272 C.3       1 <0>         0.2432
     18 C14         7.3970   -3.6530    3.7762 C.3       1 <0>        -0.0711
     19 C15         6.5668   -2.4071    3.9486 C.ar      1 <0>        -0.0942
     20 C16         7.0867   -1.1758    3.5956 C.ar      1 <0>        -0.1113
     21 C17         6.3252   -0.0330    3.7538 C.ar      1 <0>        -0.1111
     22 C18         5.0437   -0.1215    4.2645 C.ar      1 <0>        -0.0468
     23 C19         4.5235   -1.3529    4.6166 C.ar      1 <0>        -0.0964
     24 C20         5.2834   -2.4962    4.4544 C.ar      1 <0>        -0.1060
     25 C21         4.2140    1.1245    4.4379 C.3       1 <0>        -0.5561
     26 C22         3.6165    1.2195    5.8692 C.3       1 <0>        -0.1439
     27 C23         2.2112    1.7297    5.7593 C.2       1 <0>         0.4311
     28 O3          1.5898    2.2350    6.8450 O.3       1 <0>        -0.6593
     29 N2          1.6002    1.6860    4.6332 N.2       1 <0>        -0.9108
     30 S2          2.6358    1.0246    3.4951 S.o2      1 <0>         2.4537
     31 O4          2.6382    1.9323    2.4018 O.2       1 <0>        -0.9842
     32 O5          2.2229   -0.3257    3.3361 O.2       1 <0>        -0.9645
     33 C24         8.1142   -5.3909    2.1593 C.2       1 <0>         0.2693
     34 N3          7.6405   -6.5672    1.6669 N.pl3     1 <0>        -0.5857
     35 H1          6.7347   -6.7418    1.3671 H         1 <0>         0.4233
     36 C25         8.6881   -7.4663    1.6725 C.ar      1 <0>         0.0544
     37 C26         8.8229   -8.7962    1.2974 C.ar      1 <0>        -0.1109
     38 C27        10.0427   -9.4238    1.4337 C.ar      1 <0>        -0.1017
     39 C28        11.1348   -8.7354    1.9432 C.ar      1 <0>        -0.1306
     40 C29        11.0208   -7.4266    2.3173 C.ar      1 <0>        -0.0622
     41 C30         9.7942   -6.7697    2.1878 C.ar      1 <0>         0.0453
     42 N4          9.3750   -5.5070    2.4589 N.2       1 <0>        -0.4704
     43 H2         -2.4277   -0.9679    0.9153 H         1 <0>         0.1221
     44 H3         -0.8525    0.8503    0.3999 H         1 <0>         0.1259
     45 H4          1.5472    0.3699    0.1485 H         1 <0>         0.1266
     46 H5          0.7824   -3.7739    0.9239 H         1 <0>         0.1219
     47 H6         -1.6139   -3.2754    1.1727 H         1 <0>         0.1220
     48 H7          3.3372    0.0339    0.1802 H         1 <0>         0.1378
     49 H8          5.7335   -0.4646   -0.0685 H         1 <0>         0.1419
     50 H9          4.9172   -4.6378    0.2723 H         1 <0>         0.1306
     51 H10         2.5187   -4.1568    0.5338 H         1 <0>         0.1342
     52 H11         8.5212   -2.5040    1.7307 H         1 <0>         0.4260
     53 H12         6.2572   -4.3421    2.0829 H         1 <0>         0.1030
     54 H13         7.0270   -4.4313    4.4435 H         1 <0>         0.0904
     55 H14         8.4371   -3.4327    4.0163 H         1 <0>         0.0990
     56 H15         8.0879   -1.1067    3.1967 H         1 <0>         0.1226
     57 H16         6.7317    0.9290    3.4787 H         1 <0>         0.1245
     58 H17         3.5225   -1.4220    5.0159 H         1 <0>         0.1339
     59 H18         4.8757   -3.4587    4.7260 H         1 <0>         0.1227
     60 H19         4.7807    2.0186    4.1783 H         1 <0>         0.1368
     61 H20         3.6144    0.2331    6.3330 H         1 <0>         0.1038
     62 H21         4.2111    1.9067    6.4710 H         1 <0>         0.1057
     63 H22         7.9760   -9.3366    0.9011 H         1 <0>         0.1232
     64 H23        10.1491  -10.4583    1.1424 H         1 <0>         0.1291
     65 H24        12.0843   -9.2398    2.0451 H         1 <0>         0.1282
     66 H25        11.8770   -6.9006    2.7129 H         1 <0>         0.1287
@<TRIPOS>BOND
     1    1    6 ar
     2    1    2 ar
     3    1   43 1
     4    2    3 ar
     5    2   44 1
     6    3    4 ar
     7    3   45 1
     8    4    5 ar
     9    4    7 1
    10    5    6 ar
    11    5   46 1
    12    6   47 1
    13    7   12 ar
    14    7    8 ar
    15    8    9 ar
    16    8   48 1
    17    9   10 ar
    18    9   49 1
    19   10   11 ar
    20   10   13 1
    21   11   12 ar
    22   11   50 1
    23   12   51 1
    24   13   14 2
    25   13   15 2
    26   13   16 1
    27   16   17 1
    28   16   52 1
    29   17   18 1
    30   17   33 1
    31   17   53 1
    32   18   19 1
    33   18   54 1
    34   18   55 1
    35   19   24 ar
    36   19   20 ar
    37   20   21 ar
    38   20   56 1
    39   21   22 ar
    40   21   57 1
    41   22   23 ar
    42   22   25 1
    43   23   24 ar
    44   23   58 1
    45   24   59 1
    46   25   30 1
    47   25   26 1
    48   25   60 1
    49   26   27 1
    50   26   61 1
    51   26   62 1
    52   27   28 1
    53   27   29 2
    54   29   30 1
    55   30   31 2
    56   30   32 2
    57   33   42 2
    58   33   34 1
    59   34   35 1
    60   34   36 1
    61   36   41 ar
    62   36   37 ar
    63   37   38 ar
    64   37   63 1
    65   38   39 ar
    66   38   64 1
    67   39   40 ar
    68   39   65 1
    69   40   41 ar
    70   40   66 1
    71   41   42 1
@<TRIPOS>MOLECULE
CHEMBL211033__1
   66    71     0     0     0
SMALL
USER_CHARGES

@<TRIPOS>ATOM
      1 C1         -0.0167    1.3790    0.0096 C.ar      1 <0>        -0.0850
      2 C2          1.1687    2.0919    0.0021 C.ar      1 <0>        -0.1078
      3 C3          2.3774    1.4258   -0.0129 C.ar      1 <0>        -0.0922
      4 C4          2.4022    0.0327   -0.0206 C.ar      1 <0>        -0.0701
      5 C5          1.2051   -0.6804   -0.0130 C.ar      1 <0>        -0.0893
      6 C6          0.0021   -0.0041    0.0020 C.ar      1 <0>        -0.1091
      7 C7          3.6987   -0.6889   -0.0373 C.ar      1 <0>         0.0372
      8 C8          4.8958    0.0241   -0.0395 C.ar      1 <0>        -0.1336
      9 C9          6.0988   -0.6522   -0.0546 C.ar      1 <0>        -0.0029
     10 C10         6.1176   -2.0352   -0.0680 C.ar      1 <0>        -0.6846
     11 C11         4.9322   -2.7481   -0.0663 C.ar      1 <0>        -0.0198
     12 C12         3.7235   -2.0821   -0.0450 C.ar      1 <0>        -0.1346
     13 S1          7.6571   -2.8920   -0.0877 S.o2      1 <0>         2.6904
     14 O1          7.4021   -4.1724   -0.6489 O.2       1 <0>        -0.9592
     15 O2          8.6134   -1.9962   -0.6373 O.2       1 <0>        -0.9556
     16 N1          8.0968   -3.1452    1.4886 N.pl3     1 <0>        -1.0972
     17 C13         7.2857   -4.0143    2.3448 C.3       1 <0>         0.2461
     18 C14         7.2892   -3.4690    3.7743 C.3       1 <0>        -0.0713
     19 C15         6.6019   -2.1282    3.8021 C.ar      1 <0>        -0.0953
     20 C16         7.3330   -0.9724    3.6003 C.ar      1 <0>        -0.1093
     21 C17         6.7026    0.2575    3.6258 C.ar      1 <0>        -0.1120
     22 C18         5.3410    0.3317    3.8528 C.ar      1 <0>        -0.0327
     23 C19         4.6098   -0.8241    4.0537 C.ar      1 <0>        -0.0979
     24 C20         5.2395   -2.0543    4.0239 C.ar      1 <0>        -0.1032
     25 C21         4.6539    1.6726    3.8816 C.3       1 <0>        -0.5540
     26 C22         3.4019    1.6940    2.9614 C.3       1 <0>        -0.1478
     27 C23         2.1981    1.3797    3.7977 C.2       1 <0>         0.4327
     28 O3          1.0493    0.9900    3.2072 O.3       1 <0>        -0.6413
     29 N2          2.2608    1.4809    5.0740 N.2       1 <0>        -0.9095
     30 S2          3.8086    1.9668    5.4905 S.o2      1 <0>         2.4512
     31 O4          4.2518    1.0423    6.4744 O.2       1 <0>        -0.9726
     32 O5          3.7148    3.3571    5.7690 O.2       1 <0>        -0.9950
     33 C24         7.8621   -5.4068    2.3369 C.2       1 <0>         0.2706
     34 N3          7.2398   -6.5049    1.8294 N.pl3     1 <0>        -0.5856
     35 H1          6.3626   -6.5290    1.4161 H         1 <0>         0.4245
     36 C25         8.0884   -7.5785    2.0115 C.ar      1 <0>         0.0531
     37 C26         8.0145   -8.9314    1.7088 C.ar      1 <0>        -0.1108
     38 C27         9.0657   -9.7621    2.0333 C.ar      1 <0>        -0.1021
     39 C28        10.1952   -9.2549    2.6602 C.ar      1 <0>        -0.1306
     40 C29        10.2854   -7.9265    2.9656 C.ar      1 <0>        -0.0622
     41 C30         9.2324   -7.0655    2.6457 C.ar      1 <0>         0.0451
     42 N4          9.0297   -5.7328    2.8093 N.2       1 <0>        -0.4713
     43 H2         -0.9603    1.9042    0.0260 H         1 <0>         0.1175
     44 H3          1.1483    3.1717    0.0077 H         1 <0>         0.1192
     45 H4          3.3023    1.9834   -0.0191 H         1 <0>         0.1191
     46 H5          1.2186   -1.7603   -0.0193 H         1 <0>         0.1185
     47 H6         -0.9264   -0.5558    0.0082 H         1 <0>         0.1185
     48 H7          4.8823    1.1040   -0.0299 H         1 <0>         0.1341
     49 H8          7.0273   -0.1005   -0.0564 H         1 <0>         0.1382
     50 H9          4.9525   -3.8278   -0.0771 H         1 <0>         0.1334
     51 H10         2.7986   -2.6396   -0.0392 H         1 <0>         0.1340
     52 H11         8.8914   -2.7181    1.8450 H         1 <0>         0.4263
     53 H12         6.2629   -4.0423    1.9691 H         1 <0>         0.1031
     54 H13         6.7605   -4.1620    4.4288 H         1 <0>         0.0907
     55 H14         8.3176   -3.3574    4.1181 H         1 <0>         0.0979
     56 H15         8.3968   -1.0304    3.4230 H         1 <0>         0.1219
     57 H16         7.2739    1.1605    3.4689 H         1 <0>         0.1218
     58 H17         3.5461   -0.7661    4.2313 H         1 <0>         0.1266
     59 H18         4.6676   -2.9575    4.1772 H         1 <0>         0.1212
     60 H19         5.3458    2.4790    3.6383 H         1 <0>         0.1359
     61 H20         3.2912    2.6818    2.5140 H         1 <0>         0.0979
     62 H21         3.5098    0.9456    2.1763 H         1 <0>         0.1100
     63 H22         7.1375   -9.3313    1.2217 H         1 <0>         0.1232
     64 H23         9.0098  -10.8147    1.7985 H         1 <0>         0.1290
     65 H24        11.0111   -9.9173    2.9093 H         1 <0>         0.1281
     66 H25        11.1689   -7.5425    3.4538 H         1 <0>         0.1287
@<TRIPOS>BOND
     1    1    6 ar
     2    1    2 ar
     3    1   43 1
     4    2    3 ar
     5    2   44 1
     6    3    4 ar
     7    3   45 1
     8    4    5 ar
     9    4    7 1
    10    5    6 ar
    11    5   46 1
    12    6   47 1
    13    7   12 ar
    14    7    8 ar
    15    8    9 ar
    16    8   48 1
    17    9   10 ar
    18    9   49 1
    19   10   11 ar
    20   10   13 1
    21   11   12 ar
    22   11   50 1
    23   12   51 1
    24   13   14 2
    25   13   15 2
    26   13   16 1
    27   16   17 1
    28   16   52 1
    29   17   18 1
    30   17   33 1
    31   17   53 1
    32   18   19 1
    33   18   54 1
    34   18   55 1
    35   19   24 ar
    36   19   20 ar
    37   20   21 ar
    38   20   56 1
    39   21   22 ar
    40   21   57 1
    41   22   23 ar
    42   22   25 1
    43   23   24 ar
    44   23   58 1
    45   24   59 1
    46   25   30 1
    47   25   26 1
    48   25   60 1
    49   26   27 1
    50   26   61 1
    51   26   62 1
    52   27   28 1
    53   27   29 2
    54   29   30 1
    55   30   31 2
    56   30   32 2
    57   33   42 2
    58   33   34 1
    59   34   35 1
    60   34   36 1
    61   36   41 ar
    62   36   37 ar
    63   37   38 ar
    64   37   63 1
    65   38   39 ar
    66   38   64 1
    67   39   40 ar
    68   39   65 1
    69   40   41 ar
    70   40   66 1
    71   41   42 1
@<TRIPOS>MOLECULE
CHEMBL211033__2
   66    71     0     0     0
SMALL
USER_CHARGES

@<TRIPOS>ATOM
      1 C1         -0.0167    1.3790    0.0096 C.ar      1 <0>        -0.1094
      2 C2          1.1687    2.0919    0.0021 C.ar      1 <0>        -0.1195
      3 C3          2.3774    1.4258   -0.0129 C.ar      1 <0>        -0.1010
      4 C4          2.4022    0.0327   -0.0206 C.ar      1 <0>        -0.0614
      5 C5          1.2051   -0.6804   -0.0130 C.ar      1 <0>        -0.0993
      6 C6          0.0021   -0.0041    0.0020 C.ar      1 <0>        -0.1184
      7 C7          3.6987   -0.6889   -0.0373 C.ar      1 <0>         0.0208
      8 C8          4.8958    0.0241   -0.0395 C.ar      1 <0>        -0.1330
      9 C9          6.0988   -0.6522   -0.0546 C.ar      1 <0>        -0.0277
     10 C10         6.1176   -2.0352   -0.0680 C.ar      1 <0>        -0.6898
     11 C11         4.9322   -2.7481   -0.0663 C.ar      1 <0>        -0.0075
     12 C12         3.7235   -2.0821   -0.0450 C.ar      1 <0>        -0.1268
     13 S1          7.6571   -2.8920   -0.0877 S.o2      1 <0>         2.6806
     14 O1          7.4021   -4.1724   -0.6489 O.2       1 <0>        -0.9316
     15 O2          8.6134   -1.9962   -0.6373 O.2       1 <0>        -0.9418
     16 N1          8.0968   -3.1452    1.4886 N.pl3     1 <0>        -1.1146
     17 C13         7.2857   -4.0143    2.3448 C.3       1 <0>         0.2352
     18 C14         8.1975   -4.7725    3.3115 C.3       1 <0>        -0.0668
     19 C15         9.0924   -5.7023    2.5333 C.ar      1 <0>        -0.0970
     20 C16         8.6805   -6.9943    2.2647 C.ar      1 <0>        -0.1097
     21 C17         9.5014   -7.8472    1.5509 C.ar      1 <0>        -0.1078
     22 C18        10.7340   -7.4080    1.1052 C.ar      1 <0>        -0.0477
     23 C19        11.1456   -6.1158    1.3730 C.ar      1 <0>        -0.1020
     24 C20        10.3229   -5.2616    2.0832 C.ar      1 <0>        -0.1075
     25 C21        11.6293   -8.3381    0.3278 C.3       1 <0>        -0.5510
     26 C22        13.0679   -8.3708    0.9144 C.3       1 <0>        -0.1425
     27 C23        14.0404   -8.3981   -0.2261 C.2       1 <0>         0.4322
     28 O3         15.3174   -8.7788   -0.0150 O.3       1 <0>        -0.6614
     29 N2         13.6581   -8.0600   -1.4020 N.2       1 <0>        -0.9096
     30 S2         12.0336   -7.6580   -1.3346 S.o2      1 <0>         2.4576
     31 O4         11.4058   -8.4151   -2.3602 O.2       1 <0>        -0.9822
     32 O5         11.9873   -6.2378   -1.3281 O.2       1 <0>        -0.9788
     33 C24         6.3083   -3.1768    3.1285 C.2       1 <0>         0.2680
     34 N3          6.1313   -1.8369    2.9743 N.pl3     1 <0>        -0.5871
     35 H1          6.6035   -1.2625    2.3514 H         1 <0>         0.4168
     36 C25         5.1547   -1.4461    3.8685 C.ar      1 <0>         0.0541
     37 C26         4.5545   -0.2325    4.1754 C.ar      1 <0>        -0.1094
     38 C27         3.5813   -0.1792    5.1503 C.ar      1 <0>        -0.1008
     39 C28         3.1988   -1.3295    5.8258 C.ar      1 <0>        -0.1290
     40 C29         3.7784   -2.5324    5.5371 C.ar      1 <0>        -0.0626
     41 C30         4.7668   -2.6106    4.5524 C.ar      1 <0>         0.0501
     42 N4          5.5067   -3.6309    4.0473 N.2       1 <0>        -0.4745
     43 H2         -0.9603    1.9042    0.0260 H         1 <0>         0.1249
     44 H3          1.1483    3.1717    0.0077 H         1 <0>         0.1263
     45 H4          3.3023    1.9834   -0.0191 H         1 <0>         0.1264
     46 H5          1.2186   -1.7603   -0.0193 H         1 <0>         0.1269
     47 H6         -0.9264   -0.5558    0.0082 H         1 <0>         0.1268
     48 H7          4.8823    1.1040   -0.0299 H         1 <0>         0.1357
     49 H8          7.0273   -0.1005   -0.0564 H         1 <0>         0.1443
     50 H9          4.9525   -3.8278   -0.0771 H         1 <0>         0.1434
     51 H10         2.7986   -2.6396   -0.0392 H         1 <0>         0.1352
     52 H11         8.8914   -2.7181    1.8450 H         1 <0>         0.4251
     53 H12         6.7397   -4.7266    1.7262 H         1 <0>         0.1289
     54 H13         8.8083   -4.0616    3.8681 H         1 <0>         0.0838
     55 H14         7.5891   -5.3511    4.0067 H         1 <0>         0.1049
     56 H15         7.7174   -7.3374    2.6129 H         1 <0>         0.1256
     57 H16         9.1798   -8.8567    1.3416 H         1 <0>         0.1255
     58 H17        12.1087   -5.7728    1.0251 H         1 <0>         0.1353
     59 H18        10.6428   -4.2508    2.2892 H         1 <0>         0.1215
     60 H19        11.2001   -9.3377    0.2590 H         1 <0>         0.1403
     61 H20        13.2378   -7.4815    1.5214 H         1 <0>         0.1041
     62 H21        13.1949   -9.2632    1.5274 H         1 <0>         0.1063
     63 H22         4.8490    0.6658    3.6532 H         1 <0>         0.1192
     64 H23         3.1135    0.7642    5.3901 H         1 <0>         0.1274
     65 H24         2.4355   -1.2731    6.5878 H         1 <0>         0.1277
     66 H25         3.4734   -3.4213    6.0693 H         1 <0>         0.1289
@<TRIPOS>BOND
     1    1    6 ar
     2    1    2 ar
     3    1   43 1
     4    2    3 ar
     5    2   44 1
     6    3    4 ar
     7    3   45 1
     8    4    5 ar
     9    4    7 1
    10    5    6 ar
    11    5   46 1
    12    6   47 1
    13    7   12 ar
    14    7    8 ar
    15    8    9 ar
    16    8   48 1
    17    9   10 ar
    18    9   49 1
    19   10   11 ar
    20   10   13 1
    21   11   12 ar
    22   11   50 1
    23   12   51 1
    24   13   14 2
    25   13   15 2
    26   13   16 1
    27   16   17 1
    28   16   52 1
    29   17   18 1
    30   17   33 1
    31   17   53 1
    32   18   19 1
    33   18   54 1
    34   18   55 1
    35   19   24 ar
    36   19   20 ar
    37   20   21 ar
    38   20   56 1
    39   21   22 ar
    40   21   57 1
    41   22   23 ar
    42   22   25 1
    43   23   24 ar
    44   23   58 1
    45   24   59 1
    46   25   30 1
    47   25   26 1
    48   25   60 1
    49   26   27 1
    50   26   61 1
    51   26   62 1
    52   27   28 1
    53   27   29 2
    54   29   30 1
    55   30   31 2
    56   30   32 2
    57   33   42 2
    58   33   34 1
    59   34   35 1
    60   34   36 1
    61   36   41 ar
    62   36   37 ar
    63   37   38 ar
    64   37   63 1
    65   38   39 ar
    66   38   64 1
    67   39   40 ar
    68   39   65 1
    69   40   41 ar
    70   40   66 1
    71   41   42 1
@<TRIPOS>MOLECULE
CHEMBL211033__3
   66    71     0     0     0
SMALL
USER_CHARGES

@<TRIPOS>ATOM
      1 C1         -0.0167    1.3790    0.0096 C.ar      1 <0>        -0.1093
      2 C2          1.1687    2.0919    0.0021 C.ar      1 <0>        -0.1194
      3 C3          2.3774    1.4258   -0.0129 C.ar      1 <0>        -0.1008
      4 C4          2.4022    0.0327   -0.0206 C.ar      1 <0>        -0.0617
      5 C5          1.2051   -0.6804   -0.0130 C.ar      1 <0>        -0.0994
      6 C6          0.0021   -0.0041    0.0020 C.ar      1 <0>        -0.1185
      7 C7          3.6987   -0.6889   -0.0373 C.ar      1 <0>         0.0212
      8 C8          4.8958    0.0241   -0.0395 C.ar      1 <0>        -0.1329
      9 C9          6.0988   -0.6522   -0.0546 C.ar      1 <0>        -0.0275
     10 C10         6.1176   -2.0352   -0.0680 C.ar      1 <0>        -0.6897
     11 C11         4.9322   -2.7481   -0.0663 C.ar      1 <0>        -0.0074
     12 C12         3.7235   -2.0821   -0.0450 C.ar      1 <0>        -0.1271
     13 S1          7.6571   -2.8920   -0.0877 S.o2      1 <0>         2.6820
     14 O1          7.4021   -4.1724   -0.6489 O.2       1 <0>        -0.9346
     15 O2          8.6134   -1.9962   -0.6373 O.2       1 <0>        -0.9433
     16 N1          8.0968   -3.1452    1.4886 N.pl3     1 <0>        -1.1143
     17 C13         7.2857   -4.0143    2.3448 C.3       1 <0>         0.2362
     18 C14         8.1975   -4.7725    3.3115 C.3       1 <0>        -0.0674
     19 C15         9.0924   -5.7023    2.5333 C.ar      1 <0>        -0.0971
     20 C16         8.6805   -6.9943    2.2647 C.ar      1 <0>        -0.1084
     21 C17         9.5014   -7.8472    1.5509 C.ar      1 <0>        -0.1087
     22 C18        10.7340   -7.4080    1.1052 C.ar      1 <0>        -0.0363
     23 C19        11.1456   -6.1158    1.3730 C.ar      1 <0>        -0.1041
     24 C20        10.3229   -5.2616    2.0832 C.ar      1 <0>        -0.1031
     25 C21        11.6293   -8.3381    0.3278 C.3       1 <0>        -0.5512
     26 C22        12.1347   -7.6805   -0.9863 C.3       1 <0>        -0.1465
     27 C23        13.4784   -7.0711   -0.7207 C.2       1 <0>         0.4326
     28 O3         13.9803   -6.1487   -1.5677 O.3       1 <0>        -0.6584
     29 N2         14.1501   -7.4265    0.3116 N.2       1 <0>        -0.9088
     30 S2         13.2572   -8.5632    1.1577 S.o2      1 <0>         2.4554
     31 O4         13.2126   -8.0980    2.4997 O.2       1 <0>        -0.9713
     32 O5         13.8258   -9.8233    0.8289 O.2       1 <0>        -0.9932
     33 C24         6.3083   -3.1768    3.1285 C.2       1 <0>         0.2680
     34 N3          6.1313   -1.8369    2.9743 N.pl3     1 <0>        -0.5874
     35 H1          6.6035   -1.2625    2.3514 H         1 <0>         0.4166
     36 C25         5.1547   -1.4461    3.8685 C.ar      1 <0>         0.0539
     37 C26         4.5545   -0.2325    4.1754 C.ar      1 <0>        -0.1094
     38 C27         3.5813   -0.1792    5.1503 C.ar      1 <0>        -0.1009
     39 C28         3.1988   -1.3295    5.8258 C.ar      1 <0>        -0.1292
     40 C29         3.7784   -2.5324    5.5371 C.ar      1 <0>        -0.0624
     41 C30         4.7668   -2.6106    4.5524 C.ar      1 <0>         0.0503
     42 N4          5.5067   -3.6309    4.0473 N.2       1 <0>        -0.4741
     43 H2         -0.9603    1.9042    0.0260 H         1 <0>         0.1249
     44 H3          1.1483    3.1717    0.0077 H         1 <0>         0.1264
     45 H4          3.3023    1.9834   -0.0191 H         1 <0>         0.1265
     46 H5          1.2186   -1.7603   -0.0193 H         1 <0>         0.1268
     47 H6         -0.9264   -0.5558    0.0082 H         1 <0>         0.1268
     48 H7          4.8823    1.1040   -0.0299 H         1 <0>         0.1358
     49 H8          7.0273   -0.1005   -0.0564 H         1 <0>         0.1444
     50 H9          4.9525   -3.8278   -0.0771 H         1 <0>         0.1431
     51 H10         2.7986   -2.6396   -0.0392 H         1 <0>         0.1351
     52 H11         8.8914   -2.7181    1.8450 H         1 <0>         0.4259
     53 H12         6.7397   -4.7266    1.7262 H         1 <0>         0.1286
     54 H13         8.8083   -4.0616    3.8681 H         1 <0>         0.0844
     55 H14         7.5891   -5.3511    4.0067 H         1 <0>         0.1052
     56 H15         7.7174   -7.3374    2.6129 H         1 <0>         0.1247
     57 H16         9.1798   -8.8567    1.3416 H         1 <0>         0.1233
     58 H17        12.1087   -5.7728    1.0251 H         1 <0>         0.1295
     59 H18        10.6428   -4.2508    2.2892 H         1 <0>         0.1212
     60 H19        11.1403   -9.2935    0.1374 H         1 <0>         0.1385
     61 H20        12.2216   -8.4369   -1.7662 H         1 <0>         0.1057
     62 H21        11.4358   -6.9061   -1.3024 H         1 <0>         0.1079
     63 H22         4.8490    0.6658    3.6532 H         1 <0>         0.1190
     64 H23         3.1135    0.7642    5.3901 H         1 <0>         0.1273
     65 H24         2.4355   -1.2731    6.5878 H         1 <0>         0.1276
     66 H25         3.4734   -3.4213    6.0693 H         1 <0>         0.1289
@<TRIPOS>BOND
     1    1    6 ar
     2    1    2 ar
     3    1   43 1
     4    2    3 ar
     5    2   44 1
     6    3    4 ar
     7    3   45 1
     8    4    5 ar
     9    4    7 1
    10    5    6 ar
    11    5   46 1
    12    6   47 1
    13    7   12 ar
    14    7    8 ar
    15    8    9 ar
    16    8   48 1
    17    9   10 ar
    18    9   49 1
    19   10   11 ar
    20   10   13 1
    21   11   12 ar
    22   11   50 1
    23   12   51 1
    24   13   14 2
    25   13   15 2
    26   13   16 1
    27   16   17 1
    28   16   52 1
    29   17   18 1
    30   17   33 1
    31   17   53 1
    32   18   19 1
    33   18   54 1
    34   18   55 1
    35   19   24 ar
    36   19   20 ar
    37   20   21 ar
    38   20   56 1
    39   21   22 ar
    40   21   57 1
    41   22   23 ar
    42   22   25 1
    43   23   24 ar
    44   23   58 1
    45   24   59 1
    46   25   30 1
    47   25   26 1
    48   25   60 1
    49   26   27 1
    50   26   61 1
    51   26   62 1
    52   27   28 1
    53   27   29 2
    54   29   30 1
    55   30   31 2
    56   30   32 2
    57   33   42 2
    58   33   34 1
    59   34   35 1
    60   34   36 1
    61   36   41 ar
    62   36   37 ar
    63   37   38 ar
    64   37   63 1
    65   38   39 ar
    66   38   64 1
    67   39   40 ar
    68   39   65 1
    69   40   41 ar
    70   40   66 1
    71   41   42 1
@<TRIPOS>MOLECULE
CHEMBL243731
   42    44     0     0     0
SMALL
USER_CHARGES

@<TRIPOS>ATOM
      1 C1          0.4355    2.0838   -0.0054 C.ar      1 <0>        -0.1158
      2 C2          1.6998    2.6394   -0.0660 C.ar      1 <0>        -0.1238
      3 C3          2.8143    1.8217   -0.0780 C.ar      1 <0>        -0.1004
      4 C4          2.6645    0.4484   -0.0289 C.ar      1 <0>        -0.1036
      5 C5          1.4002   -0.1072    0.0327 C.ar      1 <0>        -0.0996
      6 C6          0.2857    0.7105    0.0432 C.ar      1 <0>        -0.1231
      7 C7          3.8794   -0.4431   -0.0429 C.3       1 <0>         0.1707
      8 N1          4.3214   -0.6879    1.3322 N.pl3     1 <0>        -0.7475
      9 C8          5.4376   -1.4923    1.5744 C.ar      1 <0>         0.2129
     10 C9          6.1325   -2.0559    0.5101 C.ar      1 <0>        -0.1978
     11 C10         7.2371   -2.8528    0.7445 C.ar      1 <0>        -0.0753
     12 C11         7.6582   -3.0942    2.0365 C.ar      1 <0>        -0.1538
     13 C12         6.9675   -2.5330    3.1122 C.ar      1 <0>         0.0590
     14 C13         5.8558   -1.7239    2.8756 C.ar      1 <0>        -0.1590
     15 C14         7.4156   -2.7907    4.4967 C.2       1 <0>        -0.1361
     16 C15         6.6639   -3.1705    5.5957 C.2       1 <0>        -0.1129
     17 C16         7.2981   -3.3559    6.7974 C.2       1 <0>         0.0989
     18 C17         8.6783   -3.1520    6.8571 C.2       1 <0>        -0.1409
     19 S1          9.0643   -2.6987    5.1743 S.3       1 <0>         0.1403
     20 C18         9.5449   -3.2770    7.9615 C.2       1 <0>         0.4871
     21 O1          9.0615   -3.6354    9.1505 O.co2     1 <0>        -0.6355
     22 O2         10.8477   -3.0369    7.8167 O.co2     1 <0>        -0.7109
     23 O3          6.6015   -3.7278    7.9013 O.3       1 <0>        -0.2668
     24 C19         6.4616   -5.1300    8.1383 C.3       1 <0>         0.0204
     25 C20         5.6649   -5.3495    9.3985 C.2       1 <0>         0.5131
     26 O4          5.2549   -4.3936   10.0348 O.co2     1 <0>        -0.6727
     27 O5          5.4303   -6.4828    9.7819 O.co2     1 <0>        -0.7087
     28 Br1         4.7968   -3.4285    5.4424 Br        1 <0>        -0.0362
     29 H1         -0.4351    2.7228    0.0085 H         1 <0>         0.1208
     30 H2          1.8169    3.7124   -0.1044 H         1 <0>         0.1221
     31 H3          3.8021    2.2558   -0.1261 H         1 <0>         0.1240
     32 H4          1.2831   -1.1802    0.0707 H         1 <0>         0.1245
     33 H5         -0.7021    0.2764    0.0909 H         1 <0>         0.1225
     34 H6          3.6287   -1.3914   -0.5182 H         1 <0>         0.0652
     35 H7          4.6800    0.0425   -0.6008 H         1 <0>         0.0651
     36 H8          3.8390   -0.2915    2.0746 H         1 <0>         0.4008
     37 H9          5.8078   -1.8706   -0.5031 H         1 <0>         0.1160
     38 H10         7.7724   -3.2884   -0.0862 H         1 <0>         0.1207
     39 H11         8.5219   -3.7175    2.2154 H         1 <0>         0.1230
     40 H12         5.3201   -1.2835    3.7035 H         1 <0>         0.1269
     41 H13         5.9445   -5.5909    7.2967 H         1 <0>         0.0352
     42 H14         7.4481   -5.5800    8.2491 H         1 <0>         0.0514
@<TRIPOS>BOND
     1    1    6 ar
     2    1    2 ar
     3    1   29 1
     4    2    3 ar
     5    2   30 1
     6    3    4 ar
     7    3   31 1
     8    4    5 ar
     9    4    7 1
    10    5    6 ar
    11    5   32 1
    12    6   33 1
    13    7    8 1
    14    7   34 1
    15    7   35 1
    16    8    9 1
    17    8   36 1
    18    9   14 ar
    19    9   10 ar
    20   10   11 ar
    21   10   37 1
    22   11   12 ar
    23   11   38 1
    24   12   13 ar
    25   12   39 1
    26   13   14 ar
    27   13   15 1
    28   14   40 1
    29   15   19 1
    30   15   16 2
    31   16   17 1
    32   16   28 1
    33   17   18 2
    34   17   23 1
    35   18   19 1
    36   18   20 1
    37   20   21 2
    38   20   22 1
    39   23   24 1
    40   24   25 1
    41   24   41 1
    42   24   42 1
    43   25   26 2
    44   25   27 1
@<TRIPOS>MOLECULE
CHEMBL397255
   42    44     0     0     0
SMALL
USER_CHARGES

@<TRIPOS>ATOM
      1 C1          0.2655    1.2819   -1.1207 C.ar      1 <0>        -0.1091
      2 C2          1.1887    2.0853   -0.4826 C.ar      1 <0>        -0.0777
      3 C3          2.1193    1.5208    0.3917 C.ar      1 <0>         0.0236
      4 C4          2.1116    0.1441    0.6173 C.ar      1 <0>        -0.0940
      5 C5          1.1800   -0.6541   -0.0281 C.ar      1 <0>         0.1120
      6 C6          0.2577   -0.0820   -0.8973 C.ar      1 <0>        -0.1028
      7 N1          1.1683   -2.0332    0.1939 N.pl3     1 <0>        -1.0572
      8 S1         -0.0021   -2.7078    1.1518 S.o2      1 <0>         2.6951
      9 O1         -1.2474   -2.2076    0.6845 O.2       1 <0>        -0.9468
     10 O2          0.2823   -4.0983    1.2222 O.2       1 <0>        -0.9587
     11 C7          0.2207   -2.0653    2.7772 C.ar      1 <0>        -0.6948
     12 C8          0.9815   -2.7625    3.6972 C.ar      1 <0>         0.0089
     13 C9          1.1573   -2.2593    4.9723 C.ar      1 <0>        -0.1769
     14 C10         0.5712   -1.0564    5.3282 C.ar      1 <0>         0.1639
     15 C11        -0.1905   -0.3591    4.4059 C.ar      1 <0>        -0.1698
     16 C12        -0.3606   -0.8616    3.1298 C.ar      1 <0>         0.0186
     17 F1          0.7420   -0.5638    6.5745 F         1 <0>        -0.1253
     18 C13         3.1096    2.3786    1.0755 C.2       1 <0>        -0.1470
     19 C14         2.9064    3.5709    1.7495 C.2       1 <0>        -0.1076
     20 C15         3.9847    4.2020    2.3147 C.2       1 <0>         0.0973
     21 C16         5.2429    3.6104    2.1836 C.2       1 <0>        -0.1338
     22 S2          4.8694    2.1364    1.2486 S.3       1 <0>         0.1413
     23 C17         6.4874    4.0592    2.6694 C.2       1 <0>         0.4852
     24 O3          6.5623    5.1967    3.3597 O.co2     1 <0>        -0.6325
     25 O4          7.5893    3.3461    2.4386 O.co2     1 <0>        -0.7090
     26 O5          3.8330    5.3727    2.9844 O.3       1 <0>        -0.2657
     27 C18         3.5701    5.2887    4.3865 C.3       1 <0>         0.0207
     28 C19         3.4327    6.6772    4.9559 C.2       1 <0>         0.5128
     29 O6          3.5491    7.6487    4.2285 O.co2     1 <0>        -0.6718
     30 O7          3.2051    6.8291    6.1440 O.co2     1 <0>        -0.7077
     31 Br1         1.1737    4.3156    1.8876 Br        1 <0>        -0.0337
     32 H1         -0.4562    1.7211   -1.7935 H         1 <0>         0.1334
     33 H2          1.1914    3.1507   -0.6599 H         1 <0>         0.1354
     34 H3          2.8293   -0.2984    1.2923 H         1 <0>         0.1331
     35 H4         -0.4673   -0.7054   -1.3992 H         1 <0>         0.1338
     36 H5          1.8458   -2.5957   -0.2129 H         1 <0>         0.4252
     37 H6          1.4383   -3.7009    3.4195 H         1 <0>         0.1499
     38 H7          1.7514   -2.8043    5.6909 H         1 <0>         0.1462
     39 H8         -0.6484    0.5791    4.6825 H         1 <0>         0.1497
     40 H9         -0.9510   -0.3156    2.4089 H         1 <0>         0.1496
     41 H10         2.6452    4.7357    4.5503 H         1 <0>         0.0349
     42 H11         4.3939    4.7734    4.8804 H         1 <0>         0.0511
@<TRIPOS>BOND
     1    1    6 ar
     2    1    2 ar
     3    1   32 1
     4    2    3 ar
     5    2   33 1
     6    3    4 ar
     7    3   18 1
     8    4    5 ar
     9    4   34 1
    10    5    6 ar
    11    5    7 1
    12    6   35 1
    13    7    8 1
    14    7   36 1
    15    8    9 2
    16    8   10 2
    17    8   11 1
    18   11   16 ar
    19   11   12 ar
    20   12   13 ar
    21   12   37 1
    22   13   14 ar
    23   13   38 1
    24   14   15 ar
    25   14   17 1
    26   15   16 ar
    27   15   39 1
    28   16   40 1
    29   18   22 1
    30   18   19 2
    31   19   20 1
    32   19   31 1
    33   20   21 2
    34   20   26 1
    35   21   22 1
    36   21   23 1
    37   23   24 2
    38   23   25 1
    39   26   27 1
    40   27   28 1
    41   27   41 1
    42   27   42 1
    43   28   29 2
    44   28   30 1
@<TRIPOS>MOLECULE
CHEMBL397255__1
   41    43     0     0     0
SMALL
USER_CHARGES

@<TRIPOS>ATOM
      1 C1         -0.0129    1.3697   -0.1482 C.ar      1 <0>        -0.0714
      2 C2          1.1700    2.0807   -0.1560 C.ar      1 <0>        -0.1763
      3 C3          2.3874    1.4122   -0.0136 C.ar      1 <0>         0.0298
      4 C4          2.4028    0.0253    0.1367 C.ar      1 <0>        -0.1480
      5 C5          1.2092   -0.6796    0.1437 C.ar      1 <0>         0.2709
      6 C6          0.0022   -0.0043    0.0008 C.ar      1 <0>        -0.2564
      7 N1          1.2191   -2.0685    0.2935 N.2       1 <0>        -1.0859
      8 S1         -0.2069   -2.9105    0.3019 S.o2      1 <0>         2.5937
      9 O1         -0.9061   -2.5136    1.4736 O.2       1 <0>        -1.0309
     10 O2         -0.7637   -2.7792   -0.9988 O.2       1 <0>        -1.0319
     11 C7          0.1951   -4.6136    0.5081 C.ar      1 <0>        -0.6199
     12 C8          0.4267   -5.4076   -0.5997 C.ar      1 <0>         0.0045
     13 C9          0.7425   -6.7434   -0.4392 C.ar      1 <0>        -0.1802
     14 C10         0.8268   -7.2865    0.8316 C.ar      1 <0>         0.1255
     15 C11         0.5946   -6.4903    1.9404 C.ar      1 <0>        -0.1800
     16 C12         0.2842   -5.1535    1.7776 C.ar      1 <0>         0.0046
     17 F1          1.1350   -8.5924    0.9897 F         1 <0>        -0.1435
     18 C13         3.6555    2.1711   -0.0227 C.2       1 <0>        -0.0849
     19 C14         3.9828    3.3223    0.6734 C.2       1 <0>        -0.1359
     20 C15         5.2341    3.8592    0.5105 C.2       1 <0>         0.1091
     21 C16         6.1239    3.2171   -0.3534 C.2       1 <0>        -0.1680
     22 S2          5.1560    1.8314   -0.9275 S.3       1 <0>         0.1283
     23 C17         7.4479    3.5696   -0.6832 C.2       1 <0>         0.4952
     24 O3          8.0045    4.6516   -0.1396 O.co2     1 <0>        -0.6490
     25 O4          8.1434    2.8210   -1.5387 O.co2     1 <0>        -0.7185
     26 O5          5.5987    4.9868    1.1722 O.3       1 <0>        -0.2695
     27 C18         6.2022    4.8190    2.4566 C.3       1 <0>         0.0215
     28 C19         6.5369    6.1698    3.0347 C.2       1 <0>         0.5146
     29 O6          6.2823    7.1824    2.4052 O.co2     1 <0>        -0.6754
     30 O7          7.0624    6.2501    4.1320 O.co2     1 <0>        -0.7141
     31 Br1         2.7271    4.1398    1.8270 Br        1 <0>        -0.0417
     32 H1         -0.9538    1.8891   -0.2544 H         1 <0>         0.1040
     33 H2          1.1540    3.1543   -0.2727 H         1 <0>         0.1125
     34 H3          3.3414   -0.4974    0.2469 H         1 <0>         0.1182
     35 H4         -0.9267   -0.5552    0.0065 H         1 <0>         0.0941
     36 H5          0.3605   -4.9839   -1.5909 H         1 <0>         0.1476
     37 H6          0.9230   -7.3636   -1.3048 H         1 <0>         0.1371
     38 H7          0.6598   -6.9129    2.9321 H         1 <0>         0.1373
     39 H8          0.1074   -4.5312    2.6424 H         1 <0>         0.1479
     40 H9          5.5083    4.3020    3.1193 H         1 <0>         0.0356
     41 H10         7.1144    4.2309    2.3554 H         1 <0>         0.0494
@<TRIPOS>BOND
     1    1    6 ar
     2    1    2 ar
     3    1   32 1
     4    2    3 ar
     5    2   33 1
     6    3    4 ar
     7    3   18 1
     8    4    5 ar
     9    4   34 1
    10    5    6 ar
    11    5    7 1
    12    6   35 1
    13    7    8 1
    14    8    9 2
    15    8   10 2
    16    8   11 1
    17   11   16 ar
    18   11   12 ar
    19   12   13 ar
    20   12   36 1
    21   13   14 ar
    22   13   37 1
    23   14   15 ar
    24   14   17 1
    25   15   16 ar
    26   15   38 1
    27   16   39 1
    28   18   22 1
    29   18   19 2
    30   19   20 1
    31   19   31 1
    32   20   21 2
    33   20   26 1
    34   21   22 1
    35   21   23 1
    36   23   24 2
    37   23   25 1
    38   26   27 1
    39   27   28 1
    40   27   40 1
    41   27   41 1
    42   28   29 2
    43   28   30 1
@<TRIPOS>MOLECULE
CHEMBL243732
   48    50     0     0     0
SMALL
USER_CHARGES

@<TRIPOS>ATOM
      1 C1         -0.0129    1.3697   -0.1482 C.ar      1 <0>        -0.0743
      2 C2          1.1700    2.0807   -0.1560 C.ar      1 <0>        -0.1418
      3 C3          2.3874    1.4122   -0.0136 C.ar      1 <0>         0.0593
      4 C4          2.4028    0.0253    0.1367 C.ar      1 <0>        -0.1729
      5 C5          1.2092   -0.6796    0.1437 C.ar      1 <0>         0.2114
      6 C6          0.0022   -0.0043    0.0008 C.ar      1 <0>        -0.1964
      7 N1          1.2191   -2.0685    0.2935 N.pl3     1 <0>        -0.7515
      8 C7         -0.0424   -2.8134    0.3009 C.3       1 <0>         0.1338
      9 C8          0.2474   -4.3053    0.4779 C.3       1 <0>        -0.0981
     10 C9          1.0162   -4.8234   -0.7391 C.3       1 <0>        -0.1148
     11 C10         1.3060   -6.3152   -0.5622 C.3       1 <0>        -0.1208
     12 C11        -0.0132   -7.0787   -0.4294 C.3       1 <0>        -0.1198
     13 C12        -0.7821   -6.5606    0.7876 C.3       1 <0>        -0.1185
     14 C13        -1.0719   -5.0688    0.6107 C.3       1 <0>        -0.1110
     15 C14         3.6555    2.1711   -0.0227 C.2       1 <0>        -0.1351
     16 C15         3.9828    3.3223    0.6734 C.2       1 <0>        -0.1126
     17 C16         5.2341    3.8592    0.5105 C.2       1 <0>         0.0995
     18 C17         6.1239    3.2171   -0.3534 C.2       1 <0>        -0.1407
     19 S1          5.1560    1.8314   -0.9275 S.3       1 <0>         0.1360
     20 C18         7.4479    3.5696   -0.6832 C.2       1 <0>         0.4872
     21 O1          8.0045    4.6516   -0.1396 O.co2     1 <0>        -0.6353
     22 O2          8.1434    2.8210   -1.5387 O.co2     1 <0>        -0.7113
     23 O3          5.5987    4.9868    1.1722 O.3       1 <0>        -0.2666
     24 C19         6.2022    4.8190    2.4566 C.3       1 <0>         0.0205
     25 C20         6.5369    6.1698    3.0347 C.2       1 <0>         0.5130
     26 O4          6.2823    7.1824    2.4052 O.co2     1 <0>        -0.6723
     27 O5          7.0624    6.2501    4.1320 O.co2     1 <0>        -0.7090
     28 Br1         2.7271    4.1398    1.8270 Br        1 <0>        -0.0347
     29 H1         -0.9538    1.8891   -0.2544 H         1 <0>         0.1207
     30 H2          1.1540    3.1543   -0.2727 H         1 <0>         0.1257
     31 H3          3.3414   -0.4974    0.2469 H         1 <0>         0.1229
     32 H4         -0.9267   -0.5552    0.0065 H         1 <0>         0.1153
     33 H5          2.0611   -2.5396    0.3927 H         1 <0>         0.3979
     34 H6         -0.6657   -2.4642    1.1241 H         1 <0>         0.0560
     35 H7         -0.5640   -2.6540   -0.6428 H         1 <0>         0.0562
     36 H8          0.8458   -4.4550    1.3765 H         1 <0>         0.0760
     37 H9          0.4178   -4.6736   -1.6377 H         1 <0>         0.0632
     38 H10         1.9561   -4.2794   -0.8337 H         1 <0>         0.0655
     39 H11         1.8538   -6.6843   -1.4292 H         1 <0>         0.0612
     40 H12         1.9045   -6.4650    0.3364 H         1 <0>         0.0614
     41 H13        -0.6117   -6.9289   -1.3280 H         1 <0>         0.0604
     42 H14         0.1932   -8.1415   -0.3033 H         1 <0>         0.0583
     43 H15        -1.7220   -7.1046    0.8822 H         1 <0>         0.0603
     44 H16        -0.1836   -6.7104    1.6862 H         1 <0>         0.0614
     45 H17        -1.6196   -4.6997    1.4777 H         1 <0>         0.0638
     46 H18        -1.6703   -4.9190   -0.2879 H         1 <0>         0.0640
     47 H19         5.5083    4.3020    3.1193 H         1 <0>         0.0353
     48 H20         7.1144    4.2309    2.3554 H         1 <0>         0.0511
@<TRIPOS>BOND
     1    1    6 ar
     2    1    2 ar
     3    1   29 1
     4    2    3 ar
     5    2   30 1
     6    3    4 ar
     7    3   15 1
     8    4    5 ar
     9    4   31 1
    10    5    6 ar
    11    5    7 1
    12    6   32 1
    13    7    8 1
    14    7   33 1
    15    8    9 1
    16    8   34 1
    17    8   35 1
    18    9   14 1
    19    9   10 1
    20    9   36 1
    21   10   11 1
    22   10   37 1
    23   10   38 1
    24   11   12 1
    25   11   39 1
    26   11   40 1
    27   12   13 1
    28   12   41 1
    29   12   42 1
    30   13   14 1
    31   13   43 1
    32   13   44 1
    33   14   45 1
    34   14   46 1
    35   15   19 1
    36   15   16 2
    37   16   17 1
    38   16   28 1
    39   17   18 2
    40   17   23 1
    41   18   19 1
    42   18   20 1
    43   20   21 2
    44   20   22 1
    45   23   24 1
    46   24   25 1
    47   24   47 1
    48   24   48 1
    49   25   26 2
    50   25   27 1
@<TRIPOS>MOLECULE
CHEMBL394851
   41    43     0     0     0
SMALL
USER_CHARGES

@<TRIPOS>ATOM
      1 C1          0.4215    2.0637   -0.0077 C.ar      1 <0>        -0.1132
      2 C2          1.6842    2.6222   -0.0756 C.ar      1 <0>        -0.1249
      3 C3          2.8007    1.8073   -0.0870 C.ar      1 <0>        -0.0950
      4 C4          2.6546    0.4338   -0.0302 C.ar      1 <0>        -0.0925
      5 C5          1.3919   -0.1246    0.0386 C.ar      1 <0>        -0.0942
      6 C6          0.2753    0.6903    0.0486 C.ar      1 <0>        -0.1241
      7 C7          3.8717   -0.4546   -0.0436 C.3       1 <0>         0.1015
      8 O1          4.3080   -0.6853    1.2974 O.3       1 <0>        -0.3062
      9 C8          5.4030   -1.4730    1.4632 C.ar      1 <0>         0.1277
     10 C9          6.0472   -2.0079    0.3554 C.ar      1 <0>        -0.2110
     11 C10         7.1618   -2.8095    0.5177 C.ar      1 <0>        -0.0810
     12 C11         7.6415   -3.0838    1.7823 C.ar      1 <0>        -0.1355
     13 C12         7.0006   -2.5506    2.9020 C.ar      1 <0>         0.0552
     14 C13         5.8790   -1.7370    2.7361 C.ar      1 <0>        -0.1195
     15 C14         7.5110   -2.8425    4.2578 C.2       1 <0>        -0.1443
     16 C15         6.8098   -3.2505    5.3798 C.2       1 <0>        -0.1085
     17 C16         7.4977   -3.4649    6.5466 C.2       1 <0>         0.0981
     18 C17         8.8792   -3.2609    6.5489 C.2       1 <0>        -0.1366
     19 S1          9.1887   -2.7660    4.8620 S.3       1 <0>         0.1444
     20 C18         9.7949   -3.4123    7.6095 C.2       1 <0>         0.4866
     21 O2          9.3658   -3.8008    8.8099 O.co2     1 <0>        -0.6337
     22 O3         11.0898   -3.1670    7.4120 O.co2     1 <0>        -0.7099
     23 O4          6.8518   -3.8649    7.6713 O.3       1 <0>        -0.2661
     24 C19         6.7229   -5.2728    7.8794 C.3       1 <0>         0.0201
     25 C20         5.9840   -5.5245    9.1685 C.2       1 <0>         0.5128
     26 O5          5.6032   -4.5853    9.8463 O.co2     1 <0>        -0.6720
     27 O6          5.7672   -6.6673    9.5338 O.co2     1 <0>        -0.7085
     28 Br1         4.9377   -3.5068    5.3048 Br        1 <0>        -0.0328
     29 H1         -0.4506    2.7006    0.0057 H         1 <0>         0.1218
     30 H2          1.7984    3.6952   -0.1200 H         1 <0>         0.1235
     31 H3          3.7872    2.2436   -0.1408 H         1 <0>         0.1247
     32 H4          1.2777   -1.1977    0.0827 H         1 <0>         0.1252
     33 H5         -0.7112    0.2539    0.1020 H         1 <0>         0.1240
     34 H6          3.6219   -1.4061   -0.5131 H         1 <0>         0.0700
     35 H7          4.6692    0.0301   -0.6069 H         1 <0>         0.0697
     36 H8          5.6760   -1.7972   -0.6367 H         1 <0>         0.1240
     37 H9          7.6585   -3.2226   -0.3477 H         1 <0>         0.1260
     38 H10         8.5121   -3.7110    1.9057 H         1 <0>         0.1293
     39 H11         5.3813   -1.3183    3.5982 H         1 <0>         0.1378
     40 H12         6.1683   -5.7133    7.0508 H         1 <0>         0.0355
     41 H13         7.7135   -5.7242    7.9343 H         1 <0>         0.0516
@<TRIPOS>BOND
     1    1    6 ar
     2    1    2 ar
     3    1   29 1
     4    2    3 ar
     5    2   30 1
     6    3    4 ar
     7    3   31 1
     8    4    5 ar
     9    4    7 1
    10    5    6 ar
    11    5   32 1
    12    6   33 1
    13    7    8 1
    14    7   34 1
    15    7   35 1
    16    8    9 1
    17    9   14 ar
    18    9   10 ar
    19   10   11 ar
    20   10   36 1
    21   11   12 ar
    22   11   37 1
    23   12   13 ar
    24   12   38 1
    25   13   14 ar
    26   13   15 1
    27   14   39 1
    28   15   19 1
    29   15   16 2
    30   16   17 1
    31   16   28 1
    32   17   18 2
    33   17   23 1
    34   18   19 1
    35   18   20 1
    36   20   21 2
    37   20   22 1
    38   23   24 1
    39   24   25 1
    40   24   40 1
    41   24   41 1
    42   25   26 2
    43   25   27 1
@<TRIPOS>MOLECULE
CHEMBL68125
   71    72     0     0     0
SMALL
USER_CHARGES

@<TRIPOS>ATOM
      1 C1        -12.6378  -10.8568    3.7228 C.3       1 <0>        -0.1541
      2 C2        -11.8042   -9.6891    3.1912 C.3       1 <0>        -0.1228
      3 C3        -10.3214  -10.0646    3.2236 C.3       1 <0>        -0.1190
      4 C4         -9.4879   -8.8969    2.6919 C.3       1 <0>        -0.1301
      5 C5         -8.0050   -9.2724    2.7243 C.3       1 <0>         0.1183
      6 N1         -7.2069   -8.1543    2.2153 N.am      1 <0>        -0.7344
      7 C6         -5.8647   -8.2588    2.1507 C.2       1 <0>         0.5111
      8 O1         -5.3177   -9.2784    2.5141 O.2       1 <0>        -0.5030
      9 C7         -5.0437   -7.1087    1.6271 C.3       1 <0>         0.1446
     10 C8         -5.0793   -7.1115    0.0975 C.3       1 <0>        -0.0827
     11 C9         -4.5070   -8.4076   -0.4159 C.ar      1 <0>        -0.1190
     12 C10        -3.1366   -8.5414   -0.5737 C.ar      1 <0>        -0.0817
     13 C11        -2.5982   -9.7231   -1.0431 C.ar      1 <0>        -0.1046
     14 C12        -3.4292  -10.7883   -1.3615 C.ar      1 <0>         0.2659
     15 C13        -4.8196  -10.6570   -1.2030 C.ar      1 <0>        -0.0814
     16 C14        -5.3486   -9.4551   -0.7206 C.ar      1 <0>        -0.0732
     17 C15        -5.7110  -11.7762   -1.5366 C.2       1 <0>         0.0479
     18 C16        -7.0458  -11.6451   -1.3826 C.2       1 <0>        -0.2747
     19 C17        -7.9333  -12.7594   -1.7147 C.2       1 <0>         0.5562
     20 O2         -7.4683  -13.8048   -2.1300 O.2       1 <0>        -0.5503
     21 N2         -9.2658  -12.6285   -1.5610 N.am      1 <0>        -0.8613
     22 N3         -2.8882  -11.9809   -1.8360 N.am      1 <0>        -0.5172
     23 C18        -2.4009  -12.9284   -0.9412 C.ar      1 <0>         0.1761
     24 C19        -3.2703  -13.8201   -0.3263 C.ar      1 <0>        -0.1328
     25 C20        -2.7847  -14.7591    0.5609 C.ar      1 <0>        -0.1249
     26 C21        -1.4296  -14.8216    0.8456 C.ar      1 <0>        -0.1438
     27 C22        -0.5511  -13.9463    0.2457 C.ar      1 <0>        -0.0860
     28 C23        -1.0263  -12.9921   -0.6592 C.ar      1 <0>        -0.1258
     29 C24        -0.0929  -12.0573   -1.3083 C.2       1 <0>         0.5200
     30 O3          1.0834  -12.0360   -0.9730 O.co2     1 <0>        -0.7014
     31 O4         -0.4935  -11.3017   -2.1830 O.co2     1 <0>        -0.6509
     32 C25        -2.8366  -12.2170   -3.1620 C.2       1 <0>         0.4905
     33 O5         -2.3653  -13.2560   -3.5754 O.2       1 <0>        -0.5354
     34 C26        -3.3601  -11.1992   -4.1232 C.2       1 <0>         0.5068
     35 O6         -3.3134  -11.4130   -5.3239 O.co2     1 <0>        -0.6600
     36 O7         -3.8341  -10.1542   -3.7074 O.co2     1 <0>        -0.6496
     37 N4         -3.6588   -7.2495    2.0836 N.pl3     1 <0>        -1.0958
     38 S1         -2.7660   -5.9032    2.4476 S.o2      1 <0>         2.6091
     39 O8         -1.5087   -6.4071    2.8771 O.2       1 <0>        -0.9479
     40 O9         -2.8608   -5.0819    1.2919 O.2       1 <0>        -0.9473
     41 C27        -3.6365   -5.1284    3.8378 C.3       1 <0>        -0.6810
     42 H1        -13.6942  -10.5893    3.6997 H         1 <0>         0.0511
     43 H2        -12.4717  -11.7353    3.0993 H         1 <0>         0.0554
     44 H3        -12.3412  -11.0777    4.7482 H         1 <0>         0.0525
     45 H4        -12.1008   -9.4682    2.1658 H         1 <0>         0.0622
     46 H5        -11.9703   -8.8106    3.8147 H         1 <0>         0.0588
     47 H6        -10.0248  -10.2855    4.2489 H         1 <0>         0.0635
     48 H7        -10.1553  -10.9431    2.6000 H         1 <0>         0.0684
     49 H8         -9.7844   -8.6760    1.6666 H         1 <0>         0.0710
     50 H9         -9.6539   -8.0184    3.3154 H         1 <0>         0.0656
     51 H10        -7.7085   -9.4933    3.7497 H         1 <0>         0.0646
     52 H11        -7.8390  -10.1509    2.1008 H         1 <0>         0.0722
     53 H12        -7.6444   -7.3388    1.9247 H         1 <0>         0.3981
     54 H13        -5.4550   -6.1700    1.9983 H         1 <0>         0.0990
     55 H14        -6.1100   -7.0096   -0.2422 H         1 <0>         0.0809
     56 H15        -4.4878   -6.2779   -0.2812 H         1 <0>         0.1009
     57 H16        -2.4854   -7.7156   -0.3282 H         1 <0>         0.1112
     58 H17        -1.5292   -9.8185   -1.1630 H         1 <0>         0.1501
     59 H18        -6.4154   -9.3470   -0.5915 H         1 <0>         0.1099
     60 H19        -5.2984  -12.7038   -1.9050 H         1 <0>         0.1253
     61 H20        -7.4584  -10.7175   -1.0142 H         1 <0>         0.1221
     62 H21        -9.6364  -11.7954   -1.2301 H         1 <0>         0.3958
     63 H22        -9.8543  -13.3675   -1.7813 H         1 <0>         0.3942
     64 H23        -4.3276  -13.7783   -0.5425 H         1 <0>         0.1143
     65 H24        -3.4652  -15.4497    1.0368 H         1 <0>         0.1113
     66 H25        -1.0605  -15.5602    1.5418 H         1 <0>         0.1102
     67 H26         0.5037  -13.9992    0.4715 H         1 <0>         0.1242
     68 H27        -3.2648   -8.1314    2.1727 H         1 <0>         0.4345
     69 H28        -3.6757   -5.8248    4.6754 H         1 <0>         0.1281
     70 H29        -3.1064   -4.2254    4.1406 H         1 <0>         0.1269
     71 H30        -4.6504   -4.8695    3.5327 H         1 <0>         0.1235
@<TRIPOS>BOND
     1    1    2 1
     2    1   42 1
     3    1   43 1
     4    1   44 1
     5    2    3 1
     6    2   45 1
     7    2   46 1
     8    3    4 1
     9    3   47 1
    10    3   48 1
    11    4    5 1
    12    4   49 1
    13    4   50 1
    14    5    6 1
    15    5   51 1
    16    5   52 1
    17    6    7 am
    18    6   53 1
    19    7    8 2
    20    7    9 1
    21    9   10 1
    22    9   37 1
    23    9   54 1
    24   10   11 1
    25   10   55 1
    26   10   56 1
    27   11   16 ar
    28   11   12 ar
    29   12   13 ar
    30   12   57 1
    31   13   14 ar
    32   13   58 1
    33   14   15 ar
    34   14   22 1
    35   15   16 ar
    36   15   17 1
    37   16   59 1
    38   17   18 2
    39   17   60 1
    40   18   19 1
    41   18   61 1
    42   19   20 2
    43   19   21 am
    44   21   62 1
    45   21   63 1
    46   22   23 1
    47   22   32 am
    48   23   28 ar
    49   23   24 ar
    50   24   25 ar
    51   24   64 1
    52   25   26 ar
    53   25   65 1
    54   26   27 ar
    55   26   66 1
    56   27   28 ar
    57   27   67 1
    58   28   29 1
    59   29   30 2
    60   29   31 1
    61   32   33 2
    62   32   34 1
    63   34   35 2
    64   34   36 1
    65   37   38 1
    66   37   68 1
    67   38   39 2
    68   38   40 2
    69   38   41 1
    70   41   69 1
    71   41   70 1
    72   41   71 1
@<TRIPOS>MOLECULE
CHEMBL68125__1
   71    72     0     0     0
SMALL
USER_CHARGES

@<TRIPOS>ATOM
      1 C1          0.9075    1.2924   -2.3206 C.3       1 <0>        -0.1534
      2 C2          0.8317   -0.2122   -2.0533 C.3       1 <0>        -0.1246
      3 C3         -0.6264   -0.6701   -2.1255 C.3       1 <0>        -0.1174
      4 C4         -0.7022   -2.1747   -1.8581 C.3       1 <0>        -0.1328
      5 C5         -2.1602   -2.6327   -1.9303 C.3       1 <0>         0.1193
      6 N1         -2.2328   -4.0733   -1.6743 N.am      1 <0>        -0.7328
      7 C6         -3.4255   -4.7008   -1.6870 C.2       1 <0>         0.5062
      8 O1         -4.4388   -4.0727   -1.9104 O.2       1 <0>        -0.5224
      9 C7         -3.5002   -6.1827   -1.4237 C.3       1 <0>         0.1459
     10 C8         -3.4253   -6.4374    0.0831 C.3       1 <0>        -0.0660
     11 C9         -3.3762   -7.9215    0.3398 C.ar      1 <0>        -0.1225
     12 C10        -4.5548   -8.6316    0.5062 C.ar      1 <0>        -0.0886
     13 C11        -4.5251   -9.9917    0.7421 C.ar      1 <0>        -0.1051
     14 C12        -3.3101  -10.6590    0.8148 C.ar      1 <0>         0.2655
     15 C13        -2.1124   -9.9428    0.6467 C.ar      1 <0>        -0.0802
     16 C14        -2.1602   -8.5662    0.4024 C.ar      1 <0>        -0.0854
     17 C15        -0.8193  -10.6362    0.7216 C.2       1 <0>         0.0413
     18 C16         0.3283   -9.9439    0.5595 C.2       1 <0>        -0.2694
     19 C17         1.6157  -10.6342    0.6341 C.2       1 <0>         0.5544
     20 O2          1.6523  -11.8328    0.8424 O.2       1 <0>        -0.5492
     21 N2          2.7613   -9.9430    0.4722 N.am      1 <0>        -0.8609
     22 N3         -3.2779  -12.0309    1.0536 N.am      1 <0>        -0.5185
     23 C18        -3.4602  -12.9244    0.0027 C.ar      1 <0>         0.1731
     24 C19        -2.3932  -13.2619   -0.8198 C.ar      1 <0>        -0.1346
     25 C20        -2.5764  -14.1485   -1.8616 C.ar      1 <0>        -0.1255
     26 C21        -3.8223  -14.7089   -2.0960 C.ar      1 <0>        -0.1429
     27 C22        -4.8930  -14.3872   -1.2911 C.ar      1 <0>        -0.0857
     28 C23        -4.7231  -13.4944   -0.2284 C.ar      1 <0>        -0.1256
     29 C24        -5.8611  -13.1502    0.6391 C.2       1 <0>         0.5191
     30 O3         -6.9828  -13.5550    0.3660 O.co2     1 <0>        -0.6994
     31 O4         -5.6853  -12.4594    1.6334 O.co2     1 <0>        -0.6512
     32 C25        -3.0701  -12.4928    2.3026 C.2       1 <0>         0.4904
     33 O5         -3.0421  -13.6880    2.5106 O.2       1 <0>        -0.5324
     34 C26        -2.8743  -11.5330    3.4314 C.2       1 <0>         0.5069
     35 O6         -2.6861  -11.9513    4.5624 O.co2     1 <0>        -0.6575
     36 O7         -2.9025  -10.3309    3.2222 O.co2     1 <0>        -0.6505
     37 N4         -4.7641   -6.7083   -1.9456 N.pl3     1 <0>        -1.0894
     38 S1         -4.8211   -7.3751   -3.4604 S.o2      1 <0>         2.6089
     39 O8         -6.1801   -7.7488   -3.6412 O.2       1 <0>        -0.9543
     40 O9         -4.2177   -6.4057   -4.3062 O.2       1 <0>        -0.9630
     41 C27        -3.7748   -8.8535   -3.3586 C.3       1 <0>        -0.6713
     42 H1          1.9462    1.6187   -2.2692 H         1 <0>         0.0520
     43 H2          0.5083    1.5058   -3.3122 H         1 <0>         0.0531
     44 H3          0.3220    1.8246   -1.5709 H         1 <0>         0.0535
     45 H4          1.4172   -0.7443   -2.8030 H         1 <0>         0.0614
     46 H5          1.2309   -0.4256   -1.0618 H         1 <0>         0.0622
     47 H6         -1.2119   -0.1380   -1.3757 H         1 <0>         0.0648
     48 H7         -1.0256   -0.4567   -3.1170 H         1 <0>         0.0644
     49 H8         -0.1167   -2.7069   -2.6078 H         1 <0>         0.0696
     50 H9         -0.3029   -2.3881   -0.8666 H         1 <0>         0.0708
     51 H10        -2.7457   -2.1005   -1.1806 H         1 <0>         0.0660
     52 H11        -2.5595   -2.4193   -2.9218 H         1 <0>         0.0663
     53 H12        -1.4224   -4.5756   -1.4957 H         1 <0>         0.4010
     54 H13        -2.6671   -6.6821   -1.9185 H         1 <0>         0.1042
     55 H14        -2.5276   -5.9689    0.4866 H         1 <0>         0.0872
     56 H15        -4.3052   -6.0138    0.5673 H         1 <0>         0.0870
     57 H16        -5.5030   -8.1174    0.4513 H         1 <0>         0.1163
     58 H17        -5.4484  -10.5371    0.8705 H         1 <0>         0.1523
     59 H18        -1.2450   -8.0088    0.2676 H         1 <0>         0.1185
     60 H19        -0.7868  -11.6998    0.9065 H         1 <0>         0.1267
     61 H20         0.2958   -8.8803    0.3746 H         1 <0>         0.1259
     62 H21         2.7322   -8.9878    0.3062 H         1 <0>         0.3971
     63 H22         3.6151  -10.4008    0.5217 H         1 <0>         0.3952
     64 H23        -1.4191  -12.8299   -0.6442 H         1 <0>         0.1154
     65 H24        -1.7435  -14.4070   -2.4987 H         1 <0>         0.1122
     66 H25        -3.9544  -15.4012   -2.9143 H         1 <0>         0.1112
     67 H26        -5.8617  -14.8266   -1.4785 H         1 <0>         0.1251
     68 H27        -5.5677   -6.6658   -1.4039 H         1 <0>         0.4264
     69 H28        -4.1754   -9.5309   -2.6046 H         1 <0>         0.1401
     70 H29        -3.7594   -9.3550   -4.3263 H         1 <0>         0.1285
     71 H30        -2.7608   -8.5627   -3.0839 H         1 <0>         0.1273
@<TRIPOS>BOND
     1    1    2 1
     2    1   42 1
     3    1   43 1
     4    1   44 1
     5    2    3 1
     6    2   45 1
     7    2   46 1
     8    3    4 1
     9    3   47 1
    10    3   48 1
    11    4    5 1
    12    4   49 1
    13    4   50 1
    14    5    6 1
    15    5   51 1
    16    5   52 1
    17    6    7 am
    18    6   53 1
    19    7    8 2
    20    7    9 1
    21    9   10 1
    22    9   37 1
    23    9   54 1
    24   10   11 1
    25   10   55 1
    26   10   56 1
    27   11   16 ar
    28   11   12 ar
    29   12   13 ar
    30   12   57 1
    31   13   14 ar
    32   13   58 1
    33   14   15 ar
    34   14   22 1
    35   15   16 ar
    36   15   17 1
    37   16   59 1
    38   17   18 2
    39   17   60 1
    40   18   19 1
    41   18   61 1
    42   19   20 2
    43   19   21 am
    44   21   62 1
    45   21   63 1
    46   22   23 1
    47   22   32 am
    48   23   28 ar
    49   23   24 ar
    50   24   25 ar
    51   24   64 1
    52   25   26 ar
    53   25   65 1
    54   26   27 ar
    55   26   66 1
    56   27   28 ar
    57   27   67 1
    58   28   29 1
    59   29   30 2
    60   29   31 1
    61   32   33 2
    62   32   34 1
    63   34   35 2
    64   34   36 1
    65   37   38 1
    66   37   68 1
    67   38   39 2
    68   38   40 2
    69   38   41 1
    70   41   69 1
    71   41   70 1
    72   41   71 1
@<TRIPOS>MOLECULE
CHEMBL539915
   69    71     0     0     0
SMALL
USER_CHARGES

@<TRIPOS>ATOM
      1 C1          0.5774    2.8208    1.7008 C.3       1 <0>        -0.1747
      2 C2          0.4518    1.4235    1.1504 C.2       1 <0>         0.5209
      3 O1          1.4447    0.7501    0.9732 O.2       1 <0>        -0.5202
      4 N1         -0.7640    0.9223    0.8552 N.am      1 <0>        -0.7158
      5 C3         -0.8861   -0.4361    0.3202 C.3       1 <0>         0.1451
      6 C4         -0.3091   -1.4342    1.3260 C.3       1 <0>        -0.0788
      7 C5         -1.1444   -1.4231    2.5803 C.ar      1 <0>        -0.1085
      8 C6         -0.8339   -0.5516    3.6085 C.ar      1 <0>        -0.1069
      9 C7         -1.5971   -0.5388    4.7590 C.ar      1 <0>        -0.1022
     10 C8         -2.6785   -1.4025    4.8830 C.ar      1 <0>         0.2235
     11 C9         -2.9879   -2.2761    3.8483 C.ar      1 <0>        -0.0363
     12 C10        -2.2230   -2.2802    2.6982 C.ar      1 <0>        -0.1133
     13 C11        -4.1594   -3.2150    3.9785 C.3       1 <0>        -0.0725
     14 C12        -5.3585   -2.6426    3.2198 C.3       1 <0>         0.0807
     15 O2         -6.5003   -3.4740    3.4366 O.3       1 <0>        -0.5701
     16 N2         -3.4533   -1.3926    6.0470 N.am      1 <0>        -0.5063
     17 C13        -4.2163   -0.2737    6.3651 C.ar      1 <0>         0.1782
     18 C14        -5.4672   -0.0946    5.7884 C.ar      1 <0>        -0.1374
     19 C15        -6.2224    1.0162    6.1056 C.ar      1 <0>        -0.1272
     20 C16        -5.7417    1.9604    6.9993 C.ar      1 <0>        -0.1452
     21 C17        -4.5036    1.8008    7.5819 C.ar      1 <0>        -0.0852
     22 C18        -3.7284    0.6781    7.2757 C.ar      1 <0>        -0.1280
     23 C19        -2.4073    0.4978    7.8988 C.2       1 <0>         0.5160
     24 O3         -1.9949    1.3188    8.7067 O.co2     1 <0>        -0.7025
     25 O4         -1.7216   -0.4730    7.6089 O.co2     1 <0>        -0.6475
     26 C20        -3.4610   -2.4670    6.8606 C.2       1 <0>         0.4873
     27 O5         -4.1812   -2.4835    7.8372 O.2       1 <0>        -0.5420
     28 C21        -2.5823   -3.6382    6.5602 C.2       1 <0>         0.5067
     29 O6         -2.5892   -4.6111    7.2970 O.co2     1 <0>        -0.6614
     30 O7         -1.8580   -3.6216    5.5780 O.co2     1 <0>        -0.6476
     31 C22        -0.1265   -0.5349   -0.9777 C.2       1 <0>         0.5077
     32 O8          0.7373    0.2756   -1.2380 O.2       1 <0>        -0.5054
     33 N3         -0.4073   -1.5240   -1.8491 N.am      1 <0>        -0.7348
     34 C23         0.3311   -1.6201   -3.1108 C.3       1 <0>         0.1567
     35 C24        -0.1709   -2.8032   -3.8977 C.ar      1 <0>        -0.0516
     36 C25         0.4102   -4.0454   -3.7243 C.ar      1 <0>        -0.0970
     37 C26        -0.0502   -5.1307   -4.4462 C.ar      1 <0>        -0.0537
     38 C27        -1.0921   -4.9738   -5.3411 C.ar      1 <0>        -0.0461
     39 C28        -1.6738   -3.7318   -5.5138 C.ar      1 <0>        -0.0565
     40 C29        -1.2161   -2.6474   -4.7888 C.ar      1 <0>        -0.1000
     41 N4         -1.5844   -6.1357   -6.1147 N.pl3     1 <0>         0.0336
     42 O9         -1.0754   -7.2219   -5.9639 O.2       1 <0>        -0.1573
     43 O10        -2.4956   -5.9985   -6.8974 O.3       1 <0>        -0.1606
     44 H1          1.6286    3.0489    1.8768 H         1 <0>         0.0884
     45 H2          0.1663    3.5319    0.9842 H         1 <0>         0.0808
     46 H3          0.0280    2.8923    2.6395 H         1 <0>         0.0909
     47 H4         -1.5581    1.4609    0.9970 H         1 <0>         0.4049
     48 H5         -1.9373   -0.6641    0.1442 H         1 <0>         0.1077
     49 H6         -0.3185   -2.4340    0.8920 H         1 <0>         0.0735
     50 H7          0.7156   -1.1534    1.5695 H         1 <0>         0.0958
     51 H8          0.0068    0.1194    3.5114 H         1 <0>         0.1031
     52 H9         -1.3537    0.1414    5.5618 H         1 <0>         0.1342
     53 H10        -2.4655   -2.9563    1.8917 H         1 <0>         0.1068
     54 H11        -3.8949   -4.1863    3.5605 H         1 <0>         0.0748
     55 H12        -4.4172   -3.3306    5.0313 H         1 <0>         0.0777
     56 H13        -5.5688   -1.6354    3.5794 H         1 <0>         0.0462
     57 H14        -5.1313   -2.6080    2.1543 H         1 <0>         0.0408
     58 H15        -7.2993   -3.1706    2.9842 H         1 <0>         0.3678
     59 H16        -5.8491   -0.8252    5.0908 H         1 <0>         0.1152
     60 H17        -7.1942    1.1508    5.6540 H         1 <0>         0.1107
     61 H18        -6.3410    2.8260    7.2400 H         1 <0>         0.1103
     62 H19        -4.1340    2.5399    8.2774 H         1 <0>         0.1243
     63 H20        -1.0982   -2.1722   -1.6409 H         1 <0>         0.4028
     64 H21         0.1814   -0.7087   -3.6897 H         1 <0>         0.0821
     65 H22         1.3932   -1.7472   -2.9014 H         1 <0>         0.0844
     66 H23         1.2242   -4.1680   -3.0251 H         1 <0>         0.1527
     67 H24         0.4042   -6.1011   -4.3112 H         1 <0>         0.1562
     68 H25        -2.4875   -3.6091   -6.2133 H         1 <0>         0.1545
     69 H26        -1.6731   -1.6778   -4.9210 H         1 <0>         0.1498
@<TRIPOS>BOND
     1    1    2 1
     2    1   44 1
     3    1   45 1
     4    1   46 1
     5    2    3 2
     6    2    4 am
     7    4    5 1
     8    4   47 1
     9    5    6 1
    10    5   31 1
    11    5   48 1
    12    6    7 1
    13    6   49 1
    14    6   50 1
    15    7   12 ar
    16    7    8 ar
    17    8    9 ar
    18    8   51 1
    19    9   10 ar
    20    9   52 1
    21   10   11 ar
    22   10   16 1
    23   11   12 ar
    24   11   13 1
    25   12   53 1
    26   13   14 1
    27   13   54 1
    28   13   55 1
    29   14   15 1
    30   14   56 1
    31   14   57 1
    32   15   58 1
    33   16   17 1
    34   16   26 am
    35   17   22 ar
    36   17   18 ar
    37   18   19 ar
    38   18   59 1
    39   19   20 ar
    40   19   60 1
    41   20   21 ar
    42   20   61 1
    43   21   22 ar
    44   21   62 1
    45   22   23 1
    46   23   24 2
    47   23   25 1
    48   26   27 2
    49   26   28 1
    50   28   29 2
    51   28   30 1
    52   31   32 2
    53   31   33 am
    54   33   34 1
    55   33   63 1
    56   34   35 1
    57   34   64 1
    58   34   65 1
    59   35   40 ar
    60   35   36 ar
    61   36   37 ar
    62   36   66 1
    63   37   38 ar
    64   37   67 1
    65   38   39 ar
    66   38   41 1
    67   39   40 ar
    68   39   68 1
    69   40   69 1
    70   41   42 2
    71   41   43 1
@<TRIPOS>MOLECULE
CHEMBL539915__1
   69    71     0     0     0
SMALL
USER_CHARGES

@<TRIPOS>ATOM
      1 C1         -2.0068    0.3797    1.0063 C.3       1 <0>        -0.1734
      2 C2         -1.7631   -1.0682    0.6667 C.2       1 <0>         0.5194
      3 O1         -0.6613   -1.5504    0.8228 O.2       1 <0>        -0.5184
      4 N1         -2.7695   -1.8271    0.1896 N.am      1 <0>        -0.7150
      5 C3         -2.5325   -3.2346   -0.1405 C.3       1 <0>         0.1440
      6 C4         -1.4532   -3.3304   -1.2206 C.3       1 <0>        -0.0785
      7 C5         -1.9592   -2.7021   -2.4935 C.ar      1 <0>        -0.1091
      8 C6         -2.6374   -3.4723   -3.4210 C.ar      1 <0>        -0.1205
      9 C7         -3.1024   -2.8999   -4.5882 C.ar      1 <0>        -0.1024
     10 C8         -2.8888   -1.5484   -4.8305 C.ar      1 <0>         0.2233
     11 C9         -2.2077   -0.7778   -3.8968 C.ar      1 <0>        -0.0366
     12 C10        -1.7495   -1.3558   -2.7290 C.ar      1 <0>        -0.0993
     13 C11        -1.9732    0.6882   -4.1554 C.3       1 <0>        -0.0732
     14 C12        -3.0043    1.5136   -3.3832 C.3       1 <0>         0.0816
     15 O2         -2.8549    2.8951   -3.7167 O.3       1 <0>        -0.5693
     16 N2         -3.3579   -0.9656   -6.0118 N.am      1 <0>        -0.5064
     17 C13        -4.7261   -0.8662   -6.2427 C.ar      1 <0>         0.1785
     18 C14        -5.4530    0.1810   -5.6911 C.ar      1 <0>        -0.1374
     19 C15        -6.8103    0.2776   -5.9216 C.ar      1 <0>        -0.1270
     20 C16        -7.4590   -0.6659   -6.7028 C.ar      1 <0>        -0.1453
     21 C17        -6.7557   -1.7119   -7.2587 C.ar      1 <0>        -0.0853
     22 C18        -5.3790   -1.8211   -7.0397 C.ar      1 <0>        -0.1282
     23 C19        -4.6200   -2.9324   -7.6353 C.2       1 <0>         0.5162
     24 O3         -5.1888   -3.7503   -8.3455 O.co2     1 <0>        -0.7027
     25 O4         -3.4203   -3.0384   -7.4203 O.co2     1 <0>        -0.6477
     26 C20        -2.4845   -0.5001   -6.9266 C.2       1 <0>         0.4875
     27 O5         -2.8909    0.0622   -7.9223 O.2       1 <0>        -0.5421
     28 C21        -1.0155   -0.6765   -6.7149 C.2       1 <0>         0.5065
     29 O6         -0.2246   -0.2549   -7.5434 O.co2     1 <0>        -0.6614
     30 O7         -0.6068   -1.2420   -5.7135 O.co2     1 <0>        -0.6473
     31 C22        -2.0753   -3.9698    1.0931 C.2       1 <0>         0.5085
     32 O8         -1.6133   -3.3536    2.0299 O.2       1 <0>        -0.5070
     33 N3         -2.1799   -5.3120    1.1551 N.am      1 <0>        -0.7345
     34 C23        -1.7355   -6.0267    2.3543 C.3       1 <0>         0.1573
     35 C24        -1.9592   -7.5055    2.1695 C.ar      1 <0>        -0.0524
     36 C25        -3.1598   -8.0757    2.5496 C.ar      1 <0>        -0.0998
     37 C26        -3.3650   -9.4322    2.3801 C.ar      1 <0>        -0.0562
     38 C27        -2.3699  -10.2184    1.8302 C.ar      1 <0>        -0.0457
     39 C28        -1.1696   -9.6481    1.4493 C.ar      1 <0>        -0.0538
     40 C29        -0.9660   -8.2909    1.6148 C.ar      1 <0>        -0.0970
     41 N4         -2.5893  -11.6711    1.6497 N.pl3     1 <0>         0.0335
     42 O9         -3.6389  -12.1700    1.9831 O.2       1 <0>        -0.1601
     43 O10        -1.7189  -12.3587    1.1687 O.3       1 <0>        -0.1573
     44 H1         -1.0835    0.8270    1.3746 H         1 <0>         0.0884
     45 H2         -2.3375    0.9115    0.1141 H         1 <0>         0.0870
     46 H3         -2.7757    0.4480    1.7758 H         1 <0>         0.0810
     47 H4         -3.6507   -1.4414    0.0648 H         1 <0>         0.4041
     48 H5         -3.4558   -3.6819   -0.5087 H         1 <0>         0.1092
     49 H6         -0.5579   -2.8055   -0.8873 H         1 <0>         0.0956
     50 H7         -1.2135   -4.3780   -1.4029 H         1 <0>         0.0739
     51 H8         -2.8031   -4.5226   -3.2320 H         1 <0>         0.1071
     52 H9         -3.6312   -3.5019   -5.3123 H         1 <0>         0.1347
     53 H10        -1.2235   -0.7564   -2.0008 H         1 <0>         0.1033
     54 H11        -0.9702    0.9593   -3.8260 H         1 <0>         0.0748
     55 H12        -2.0720    0.8892   -5.2222 H         1 <0>         0.0778
     56 H13        -4.0080    1.1821   -3.6491 H         1 <0>         0.0462
     57 H14        -2.8490    1.3795   -2.3127 H         1 <0>         0.0398
     58 H15        -3.4779    3.4789   -3.2627 H         1 <0>         0.3676
     59 H16        -4.9556    0.9203   -5.0809 H         1 <0>         0.1154
     60 H17        -7.3709    1.0937   -5.4900 H         1 <0>         0.1108
     61 H18        -8.5215   -0.5808   -6.8763 H         1 <0>         0.1103
     62 H19        -7.2663   -2.4444   -7.8663 H         1 <0>         0.1242
     63 H20        -2.5494   -5.8049    0.4058 H         1 <0>         0.4036
     64 H21        -0.6746   -5.8374    2.5178 H         1 <0>         0.0842
     65 H22        -2.3039   -5.6782    3.2165 H         1 <0>         0.0821
     66 H23        -3.9373   -7.4614    2.9792 H         1 <0>         0.1498
     67 H24        -4.3028   -9.8778    2.6777 H         1 <0>         0.1547
     68 H25        -0.3920  -10.2624    1.0201 H         1 <0>         0.1562
     69 H26        -0.0297   -7.8446    1.3139 H         1 <0>         0.1525
@<TRIPOS>BOND
     1    1    2 1
     2    1   44 1
     3    1   45 1
     4    1   46 1
     5    2    3 2
     6    2    4 am
     7    4    5 1
     8    4   47 1
     9    5    6 1
    10    5   31 1
    11    5   48 1
    12    6    7 1
    13    6   49 1
    14    6   50 1
    15    7   12 ar
    16    7    8 ar
    17    8    9 ar
    18    8   51 1
    19    9   10 ar
    20    9   52 1
    21   10   11 ar
    22   10   16 1
    23   11   12 ar
    24   11   13 1
    25   12   53 1
    26   13   14 1
    27   13   54 1
    28   13   55 1
    29   14   15 1
    30   14   56 1
    31   14   57 1
    32   15   58 1
    33   16   17 1
    34   16   26 am
    35   17   22 ar
    36   17   18 ar
    37   18   19 ar
    38   18   59 1
    39   19   20 ar
    40   19   60 1
    41   20   21 ar
    42   20   61 1
    43   21   22 ar
    44   21   62 1
    45   22   23 1
    46   23   24 2
    47   23   25 1
    48   26   27 2
    49   26   28 1
    50   28   29 2
    51   28   30 1
    52   31   32 2
    53   31   33 am
    54   33   34 1
    55   33   63 1
    56   34   35 1
    57   34   64 1
    58   34   65 1
    59   35   40 ar
    60   35   36 ar
    61   36   37 ar
    62   36   66 1
    63   37   38 ar
    64   37   67 1
    65   38   39 ar
    66   38   41 1
    67   39   40 ar
    68   39   68 1
    69   40   69 1
    70   41   42 2
    71   41   43 1
@<TRIPOS>MOLECULE
CHEMBL279242
   66    70     0     0     0
SMALL
USER_CHARGES

@<TRIPOS>ATOM
      1 C1         -0.8143    1.1152    1.8657 C.3       1 <0>        -0.1533
      2 C2         -0.7139   -0.4090    1.7779 C.3       1 <0>        -0.1245
      3 C3         -0.2005   -0.8074    0.3927 C.3       1 <0>        -0.1187
      4 C4         -0.1001   -2.3315    0.3050 C.3       1 <0>        -0.0452
      5 C5          0.4055   -2.7239   -1.0594 C.2       1 <0>         0.0513
      6 C6          1.7084   -2.8843   -1.3888 C.2       1 <0>        -0.1322
      7 C7          1.7206   -3.2661   -2.8129 C.ar      1 <0>        -0.1114
      8 C8          2.7243   -3.5667   -3.7297 C.ar      1 <0>        -0.0681
      9 C9          2.3878   -3.8943   -5.0250 C.ar      1 <0>        -0.1364
     10 C10         1.0566   -3.9248   -5.4144 C.ar      1 <0>        -0.0967
     11 C11         0.0544   -3.6287   -4.5159 C.ar      1 <0>        -0.1085
     12 C12         0.3734   -3.2963   -3.2047 C.ar      1 <0>         0.0503
     13 O1         -0.3703   -2.9720   -2.1275 O.3       1 <0>        -0.1898
     14 C13         2.8818   -2.7111   -0.5006 C.ar      1 <0>        -0.0337
     15 C14         3.1788   -1.4537    0.0260 C.ar      1 <0>        -0.0969
     16 C15         4.2692   -1.2931    0.8518 C.ar      1 <0>        -0.1200
     17 C16         5.0766   -2.3874    1.1618 C.ar      1 <0>        -0.0071
     18 C17         4.7799   -3.6445    0.6355 C.ar      1 <0>        -0.1208
     19 C18         3.6865   -3.8066   -0.1862 C.ar      1 <0>        -0.0958
     20 C19         6.2508   -2.2141    2.0506 C.ar      1 <0>        -0.1192
     21 C20         6.5458   -0.9593    2.5817 C.ar      1 <0>        -0.0605
     22 C21         7.6385   -0.8014    3.4079 C.ar      1 <0>        -0.2011
     23 C22         8.4449   -1.8903    3.7106 C.ar      1 <0>         0.1802
     24 C23         8.1538   -3.1412    3.1833 C.ar      1 <0>        -0.1660
     25 C24         7.0589   -3.3069    2.3614 C.ar      1 <0>        -0.0664
     26 O2          9.5214   -1.7314    4.5243 O.3       1 <0>        -0.2881
     27 C25         9.8323   -0.3987    4.9359 C.3       1 <0>         0.0228
     28 C26        11.3170   -0.3090    5.2945 C.3       1 <0>        -0.0637
     29 C27        12.1473   -0.5489    4.0599 C.ar      1 <0>        -0.0703
     30 C28        12.5370   -1.8329    3.7278 C.ar      1 <0>        -0.1035
     31 C29        13.2986   -2.0530    2.5953 C.ar      1 <0>        -0.1225
     32 C30        13.6701   -0.9891    1.7948 C.ar      1 <0>        -0.1328
     33 C31        13.2797    0.2949    2.1264 C.ar      1 <0>        -0.1229
     34 C32        12.5145    0.5144    3.2565 C.ar      1 <0>        -0.1196
     35 C33         9.0020   -0.0385    6.1408 C.2       1 <0>         0.4810
     36 O3          8.2844   -0.8768    6.6594 O.co2     1 <0>        -0.6698
     37 O4          9.0477    1.0912    6.5970 O.co2     1 <0>        -0.6891
     38 H1          0.1701    1.5541    1.7030 H         1 <0>         0.0560
     39 H2         -1.5044    1.4783    1.1042 H         1 <0>         0.0523
     40 H3         -1.1800    1.3989    2.8525 H         1 <0>         0.0558
     41 H4         -0.0237   -0.7722    2.5394 H         1 <0>         0.0673
     42 H5         -1.6982   -0.8480    1.9407 H         1 <0>         0.0626
     43 H6         -0.8907   -0.4442   -0.3688 H         1 <0>         0.0657
     44 H7          0.7838   -0.3684    0.2300 H         1 <0>         0.0713
     45 H8          0.5900   -2.6947    1.0665 H         1 <0>         0.1002
     46 H9         -1.0845   -2.7705    0.4677 H         1 <0>         0.0848
     47 H10         3.7609   -3.5428   -3.4273 H         1 <0>         0.1277
     48 H11         3.1630   -4.1279   -5.7397 H         1 <0>         0.1292
     49 H12         0.8031   -4.1828   -6.4320 H         1 <0>         0.1337
     50 H13        -0.9785   -3.6556   -4.8304 H         1 <0>         0.1303
     51 H14         2.5539   -0.6063   -0.2143 H         1 <0>         0.1212
     52 H15         4.4993   -0.3197    1.2592 H         1 <0>         0.1269
     53 H16         5.4052   -4.4917    0.8756 H         1 <0>         0.1263
     54 H17         3.4542   -4.7809   -0.5901 H         1 <0>         0.1197
     55 H18         5.9193   -0.1117    2.3461 H         1 <0>         0.1215
     56 H19         7.8675    0.1704    3.8197 H         1 <0>         0.1295
     57 H20         8.7830   -3.9864    3.4206 H         1 <0>         0.1272
     58 H21         6.8302   -4.2812    1.9555 H         1 <0>         0.1249
     59 H22         9.6124    0.2933    4.1230 H         1 <0>         0.0670
     60 H23        11.5355    0.6820    5.6923 H         1 <0>         0.0964
     61 H24        11.5558   -1.0626    6.0449 H         1 <0>         0.0787
     62 H25        12.2467   -2.6642    4.3532 H         1 <0>         0.1227
     63 H26        13.6036   -3.0561    2.3362 H         1 <0>         0.1171
     64 H27        14.2657   -1.1609    0.9104 H         1 <0>         0.1152
     65 H28        13.5702    1.1261    1.5011 H         1 <0>         0.1171
     66 H29        12.2063    1.5171    3.5136 H         1 <0>         0.1212
@<TRIPOS>BOND
     1    1    2 1
     2    1   38 1
     3    1   39 1
     4    1   40 1
     5    2    3 1
     6    2   41 1
     7    2   42 1
     8    3    4 1
     9    3   43 1
    10    3   44 1
    11    4    5 1
    12    4   45 1
    13    4   46 1
    14    5   13 1
    15    5    6 2
    16    6    7 1
    17    6   14 1
    18    7   12 ar
    19    7    8 ar
    20    8    9 ar
    21    8   47 1
    22    9   10 ar
    23    9   48 1
    24   10   11 ar
    25   10   49 1
    26   11   12 ar
    27   11   50 1
    28   12   13 1
    29   14   19 ar
    30   14   15 ar
    31   15   16 ar
    32   15   51 1
    33   16   17 ar
    34   16   52 1
    35   17   18 ar
    36   17   20 1
    37   18   19 ar
    38   18   53 1
    39   19   54 1
    40   20   25 ar
    41   20   21 ar
    42   21   22 ar
    43   21   55 1
    44   22   23 ar
    45   22   56 1
    46   23   24 ar
    47   23   26 1
    48   24   25 ar
    49   24   57 1
    50   25   58 1
    51   26   27 1
    52   27   28 1
    53   27   35 1
    54   27   59 1
    55   28   29 1
    56   28   60 1
    57   28   61 1
    58   29   34 ar
    59   29   30 ar
    60   30   31 ar
    61   30   62 1
    62   31   32 ar
    63   31   63 1
    64   32   33 ar
    65   32   64 1
    66   33   34 ar
    67   33   65 1
    68   34   66 1
    69   35   36 2
    70   35   37 1
@<TRIPOS>MOLECULE
CHEMBL279242__1
   66    70     0     0     0
SMALL
USER_CHARGES

@<TRIPOS>ATOM
      1 C1          0.5694    2.1513   -0.6509 C.3       1 <0>        -0.1536
      2 C2          0.3848    0.6434   -0.4693 C.3       1 <0>        -0.1237
      3 C3          1.0461   -0.0954   -1.6346 C.3       1 <0>        -0.1194
      4 C4          0.8615   -1.6033   -1.4529 C.3       1 <0>        -0.0442
      5 C5          1.5128   -2.3310   -2.6006 C.2       1 <0>         0.0495
      6 C6          2.7967   -2.7586   -2.6213 C.2       1 <0>        -0.1310
      7 C7          2.9843   -3.4091   -3.9312 C.ar      1 <0>        -0.1118
      8 C8          4.0555   -4.0398   -4.5582 C.ar      1 <0>        -0.0676
      9 C9          3.8946   -4.5569   -5.8252 C.ar      1 <0>        -0.1360
     10 C10         2.6725   -4.4502   -6.4731 C.ar      1 <0>        -0.0961
     11 C11         1.6052   -3.8277   -5.8626 C.ar      1 <0>        -0.1090
     12 C12         1.7474   -3.3001   -4.5848 C.ar      1 <0>         0.0504
     13 O1          0.9035   -2.6565   -3.7526 O.3       1 <0>        -0.1901
     14 C13         3.8067   -2.6043   -1.5480 C.ar      1 <0>        -0.0340
     15 C14         4.2456   -1.3320   -1.1807 C.ar      1 <0>        -0.0969
     16 C15         5.1840   -1.1888   -0.1828 C.ar      1 <0>        -0.1201
     17 C16         5.6955   -2.3156    0.4606 C.ar      1 <0>        -0.0069
     18 C17         5.2568   -3.5877    0.0935 C.ar      1 <0>        -0.1208
     19 C18         4.3145   -3.7311   -0.9007 C.ar      1 <0>        -0.0958
     20 C19         6.7061   -2.1612    1.5346 C.ar      1 <0>        -0.1193
     21 C20         7.1418   -0.8901    1.9063 C.ar      1 <0>        -0.0609
     22 C21         8.0818   -0.7499    2.9055 C.ar      1 <0>        -0.1992
     23 C22         8.5946   -1.8728    3.5408 C.ar      1 <0>         0.1814
     24 C23         8.1628   -3.1400    3.1729 C.ar      1 <0>        -0.1663
     25 C24         7.2184   -3.2866    2.1788 C.ar      1 <0>        -0.0667
     26 O2          9.5214   -1.7314    4.5243 O.3       1 <0>        -0.2887
     27 C25         9.8323   -0.3987    4.9359 C.3       1 <0>         0.0227
     28 C26        10.3630   -0.4189    6.3708 C.3       1 <0>        -0.0634
     29 C27         9.2726   -0.8800    7.3033 C.ar      1 <0>        -0.0702
     30 C28         8.4149    0.0421    7.8733 C.ar      1 <0>        -0.1197
     31 C29         7.4147   -0.3808    8.7286 C.ar      1 <0>        -0.1229
     32 C30         7.2718   -1.7259    9.0135 C.ar      1 <0>        -0.1329
     33 C31         8.1290   -2.6481    8.4427 C.ar      1 <0>        -0.1226
     34 C32         9.1265   -2.2256    7.5840 C.ar      1 <0>        -0.1037
     35 C33        10.8813    0.1780    4.0205 C.2       1 <0>         0.4807
     36 O3         11.3218   -0.4903    3.1007 O.co2     1 <0>        -0.6697
     37 O4         11.2895    1.3128    4.1995 O.co2     1 <0>        -0.6889
     38 H1          1.6334    2.3870   -0.6737 H         1 <0>         0.0561
     39 H2          0.1080    2.4636   -1.5878 H         1 <0>         0.0528
     40 H3          0.0983    2.6777    0.1792 H         1 <0>         0.0552
     41 H4          0.8463    0.3312    0.4676 H         1 <0>         0.0663
     42 H5         -0.6791    0.4077   -0.4465 H         1 <0>         0.0624
     43 H6          0.5846    0.2169   -2.5714 H         1 <0>         0.0660
     44 H7          2.1100    0.1403   -1.6573 H         1 <0>         0.0717
     45 H8          1.3229   -1.9155   -0.5160 H         1 <0>         0.0995
     46 H9         -0.2025   -1.8390   -1.4301 H         1 <0>         0.0844
     47 H10         5.0073   -4.1229   -4.0546 H         1 <0>         0.1282
     48 H11         4.7228   -5.0466   -6.3157 H         1 <0>         0.1296
     49 H12         2.5565   -4.8588   -7.4661 H         1 <0>         0.1339
     50 H13         0.6586   -3.7505   -6.3768 H         1 <0>         0.1301
     51 H14         3.8498   -0.4594   -1.6791 H         1 <0>         0.1211
     52 H15         5.5240   -0.2039    0.1013 H         1 <0>         0.1269
     53 H16         5.6530   -4.4601    0.5918 H         1 <0>         0.1263
     54 H17         3.9716   -4.7158   -1.1818 H         1 <0>         0.1197
     55 H18         6.7438   -0.0162    1.4121 H         1 <0>         0.1213
     56 H19         8.4197    0.2345    3.1939 H         1 <0>         0.1287
     57 H20         8.5636   -4.0116    3.6690 H         1 <0>         0.1269
     58 H21         6.8793   -4.2723    1.8964 H         1 <0>         0.1247
     59 H22         8.9327    0.2150    4.8898 H         1 <0>         0.0670
     60 H23        11.2096   -1.1024    6.4356 H         1 <0>         0.0780
     61 H24        10.6832    0.5838    6.6539 H         1 <0>         0.0974
     62 H25         8.5265    1.0930    7.6508 H         1 <0>         0.1212
     63 H26         6.7451    0.3397    9.1746 H         1 <0>         0.1170
     64 H27         6.4908   -2.0563    9.6823 H         1 <0>         0.1152
     65 H28         8.0176   -3.6990    8.6655 H         1 <0>         0.1171
     66 H29         9.7938   -2.9465    7.1352 H         1 <0>         0.1225
@<TRIPOS>BOND
     1    1    2 1
     2    1   38 1
     3    1   39 1
     4    1   40 1
     5    2    3 1
     6    2   41 1
     7    2   42 1
     8    3    4 1
     9    3   43 1
    10    3   44 1
    11    4    5 1
    12    4   45 1
    13    4   46 1
    14    5   13 1
    15    5    6 2
    16    6    7 1
    17    6   14 1
    18    7   12 ar
    19    7    8 ar
    20    8    9 ar
    21    8   47 1
    22    9   10 ar
    23    9   48 1
    24   10   11 ar
    25   10   49 1
    26   11   12 ar
    27   11   50 1
    28   12   13 1
    29   14   19 ar
    30   14   15 ar
    31   15   16 ar
    32   15   51 1
    33   16   17 ar
    34   16   52 1
    35   17   18 ar
    36   17   20 1
    37   18   19 ar
    38   18   53 1
    39   19   54 1
    40   20   25 ar
    41   20   21 ar
    42   21   22 ar
    43   21   55 1
    44   22   23 ar
    45   22   56 1
    46   23   24 ar
    47   23   26 1
    48   24   25 ar
    49   24   57 1
    50   25   58 1
    51   26   27 1
    52   27   28 1
    53   27   35 1
    54   27   59 1
    55   28   29 1
    56   28   60 1
    57   28   61 1
    58   29   34 ar
    59   29   30 ar
    60   30   31 ar
    61   30   62 1
    62   31   32 ar
    63   31   63 1
    64   32   33 ar
    65   32   64 1
    66   33   34 ar
    67   33   65 1
    68   34   66 1
    69   35   36 2
    70   35   37 1
@<TRIPOS>MOLECULE
CHEMBL550662
   42    44     0     0     0
SMALL
USER_CHARGES

@<TRIPOS>ATOM
      1 C1          0.0706    4.5141   -0.3884 C.2       1 <0>        -0.1537
      2 C2          1.4525    4.5474   -0.3851 C.2       1 <0>        -0.1635
      3 C3          2.1372    3.3958   -0.1794 C.2       1 <0>        -0.1319
      4 S1          0.8165    2.2111    0.0188 S.3       1 <0>         0.0288
      5 C4         -0.5589    3.3308   -0.1860 C.2       1 <0>        -0.1789
      6 C5          3.6269    3.1732   -0.1310 C.3       1 <0>        -0.0372
      7 C6          4.1220    3.3463    1.3063 C.3       1 <0>        -0.1010
      8 C7          5.6345    3.1203    1.3554 C.3       1 <0>        -0.1385
      9 C8          6.1221    3.2909    2.7711 C.2       1 <0>         0.5091
     10 O1          5.3373    3.5661    3.6539 O.2       1 <0>        -0.5181
     11 N1          7.4305    3.1376    3.0562 N.am      1 <0>        -0.6721
     12 C9          7.8988    3.3907    4.3502 C.ar      1 <0>         0.1256
     13 C10         7.1079    3.0849    5.4502 C.ar      1 <0>        -0.1179
     14 C11         7.5758    3.3391    6.7226 C.ar      1 <0>        -0.1033
     15 C12         8.8313    3.8971    6.9095 C.ar      1 <0>        -0.0691
     16 C13         9.6214    4.1986    5.8193 C.ar      1 <0>        -0.0980
     17 C14         9.1569    3.9427    4.5395 C.ar      1 <0>        -0.1367
     18 C15        10.9959    4.7934    5.9836 C.3       1 <0>         0.0926
     19 O2         11.1556    5.3127    7.3033 O.3       1 <0>        -0.3436
     20 C16        10.8184    4.3674    8.3249 C.3       1 <0>         0.0224
     21 H1         11.3158    3.4184    8.1244 H         1 <0>         0.0544
     22 C17         9.3022    4.1650    8.3166 C.3       1 <0>        -0.0930
     23 C18        11.2557    4.8947    9.6671 C.2       1 <0>         0.5062
     24 O3         11.7227    6.0173    9.7584 O.co2     1 <0>        -0.6729
     25 O4         11.1425    4.1988   10.6618 O.co2     1 <0>        -0.6912
     26 H2         -0.4990    5.4181   -0.5456 H         1 <0>         0.1323
     27 H3          1.9787    5.4770   -0.5443 H         1 <0>         0.1325
     28 H4         -1.6177    3.1202   -0.1559 H         1 <0>         0.1839
     29 H5          3.8549    2.1643   -0.4748 H         1 <0>         0.0809
     30 H6          4.1237    3.8978   -0.7762 H         1 <0>         0.0884
     31 H7          3.8941    4.3553    1.6501 H         1 <0>         0.0767
     32 H8          3.6253    2.6217    1.9515 H         1 <0>         0.0754
     33 H9          5.8624    2.1114    1.0116 H         1 <0>         0.0976
     34 H10         6.1313    3.8450    0.7102 H         1 <0>         0.0985
     35 H11         8.0474    2.8517    2.3644 H         1 <0>         0.4085
     36 H12         6.1295    2.6497    5.3097 H         1 <0>         0.1354
     37 H13         6.9606    3.1025    7.5782 H         1 <0>         0.1262
     38 H14         9.7751    4.1782    3.6858 H         1 <0>         0.1233
     39 H15        11.7462    4.0231    5.8056 H         1 <0>         0.0568
     40 H16        11.1297    5.5981    5.2606 H         1 <0>         0.0967
     41 H17         8.8146    5.0624    8.6973 H         1 <0>         0.0821
     42 H18         9.0462    3.3171    8.9520 H         1 <0>         0.0861
@<TRIPOS>BOND
     1    1    5 2
     2    1    2 1
     3    1   26 1
     4    2    3 2
     5    2   27 1
     6    3    4 1
     7    3    6 1
     8    4    5 1
     9    5   28 1
    10    6    7 1
    11    6   29 1
    12    6   30 1
    13    7    8 1
    14    7   31 1
    15    7   32 1
    16    8    9 1
    17    8   33 1
    18    8   34 1
    19    9   10 2
    20    9   11 am
    21   11   12 1
    22   11   35 1
    23   12   17 ar
    24   12   13 ar
    25   13   14 ar
    26   13   36 1
    27   14   15 ar
    28   14   37 1
    29   15   22 1
    30   15   16 ar
    31   16   17 ar
    32   16   18 1
    33   17   38 1
    34   18   19 1
    35   18   39 1
    36   18   40 1
    37   19   20 1
    38   20   21 1
    39   20   22 1
    40   20   23 1
    41   22   41 1
    42   22   42 1
    43   23   24 2
    44   23   25 1
@<TRIPOS>MOLECULE
CHEMBL26329
   67    71     0     0     0
SMALL
USER_CHARGES

@<TRIPOS>ATOM
      1 C1          0.4505    2.9658   -0.2373 C.3       1 <0>        -0.1037
      2 C2          0.6485    1.4882   -0.4582 C.2       1 <0>        -0.1071
      3 C3          0.7533    0.9900   -1.7106 C.2       1 <0>        -0.1519
      4 S1          0.9697   -0.7553   -1.4069 S.3       1 <0>         0.0254
      5 C4          0.9073   -0.7158    0.3766 C.2       1 <0>        -0.1219
      6 C5          0.7320    0.6174    0.6245 C.2       1 <0>        -0.0691
      7 C6          0.6277    1.1232    2.0146 C.ar      1 <0>        -0.0402
      8 C7          1.7227    1.0327    2.8736 C.ar      1 <0>        -0.1013
      9 C8          1.6258    1.5025    4.1648 C.ar      1 <0>        -0.1190
     10 C9          0.4327    2.0686    4.6132 C.ar      1 <0>        -0.0095
     11 C10        -0.6623    2.1591    3.7542 C.ar      1 <0>        -0.1203
     12 C11        -0.5636    1.6946    2.4612 C.ar      1 <0>        -0.0973
     13 C12         0.3283    2.5739    6.0034 C.ar      1 <0>        -0.1181
     14 C13         1.4237    2.4890    6.8617 C.ar      1 <0>        -0.0611
     15 C14         1.3235    2.9602    8.1538 C.ar      1 <0>        -0.2009
     16 C15         0.1335    3.5187    8.6003 C.ar      1 <0>         0.1798
     17 C16        -0.9591    3.6047    7.7481 C.ar      1 <0>        -0.1660
     18 C17        -0.8637    3.1401    6.4532 C.ar      1 <0>        -0.0669
     19 O1          0.0378    3.9817    9.8742 O.3       1 <0>        -0.2883
     20 C18         1.1576    3.7554   10.7325 C.3       1 <0>         0.0230
     21 C19         0.6925    3.7620   12.1901 C.3       1 <0>        -0.0637
     22 C20        -0.2335    2.5969   12.4272 C.ar      1 <0>        -0.0702
     23 C21        -1.5936    2.7435   12.2287 C.ar      1 <0>        -0.1035
     24 C22        -2.4430    1.6748   12.4462 C.ar      1 <0>        -0.1225
     25 C23        -1.9321    0.4594   12.8617 C.ar      1 <0>        -0.1328
     26 C24        -0.5719    0.3125   13.0594 C.ar      1 <0>        -0.1229
     27 C25         0.2779    1.3801   12.8378 C.ar      1 <0>        -0.1196
     28 C26         2.1774    4.8455   10.5257 C.2       1 <0>         0.4809
     29 O2          1.9271    5.7823    9.7867 O.co2     1 <0>        -0.6697
     30 O3          3.2529    4.7906   11.0975 O.co2     1 <0>        -0.6893
     31 C27         1.0236   -1.8556    1.3555 C.3       1 <0>         0.0023
     32 C28        -0.3459   -2.4184    1.6361 C.ar      1 <0>        -0.0784
     33 C29        -1.1056   -1.9049    2.6706 C.ar      1 <0>        -0.1012
     34 C30        -2.3618   -2.4212    2.9280 C.ar      1 <0>        -0.1176
     35 C31        -2.8586   -3.4506    2.1507 C.ar      1 <0>        -0.1215
     36 C32        -2.0993   -3.9635    1.1156 C.ar      1 <0>        -0.1217
     37 C33        -0.8449   -3.4444    0.8555 C.ar      1 <0>        -0.1127
     38 C34         0.7004    1.7215   -3.0270 C.3       1 <0>        -0.0675
     39 H1          1.4215    3.4544   -0.1561 H         1 <0>         0.0682
     40 H2         -0.0997    3.3883   -1.0780 H         1 <0>         0.0634
     41 H3         -0.1135    3.1233    0.6820 H         1 <0>         0.0727
     42 H4          2.6465    0.5940    2.5264 H         1 <0>         0.1195
     43 H5          2.4737    1.4321    4.8301 H         1 <0>         0.1258
     44 H6         -1.5863    2.5972    4.1016 H         1 <0>         0.1249
     45 H7         -1.4100    1.7691    1.7946 H         1 <0>         0.1185
     46 H8          2.3496    2.0543    6.5150 H         1 <0>         0.1212
     47 H9          2.1716    2.8944    8.8192 H         1 <0>         0.1292
     48 H10        -1.8836    4.0394    8.0984 H         1 <0>         0.1268
     49 H11        -1.7127    3.2111    5.7894 H         1 <0>         0.1244
     50 H12         1.6055    2.7897   10.4984 H         1 <0>         0.0669
     51 H13         1.5576    3.6784   12.8479 H         1 <0>         0.0963
     52 H14         0.1658    4.6931   12.3992 H         1 <0>         0.0786
     53 H15        -1.9927    3.6931   11.9040 H         1 <0>         0.1226
     54 H16        -3.5057    1.7895   12.2918 H         1 <0>         0.1171
     55 H17        -2.5958   -0.3754   13.0323 H         1 <0>         0.1152
     56 H18        -0.1728   -0.6369   13.3844 H         1 <0>         0.1171
     57 H19         1.3411    1.2643   12.9886 H         1 <0>         0.1212
     58 H20         1.6569   -2.6351    0.9320 H         1 <0>         0.0866
     59 H21         1.4648   -1.4935    2.2841 H         1 <0>         0.0984
     60 H22        -0.7174   -1.1006    3.2780 H         1 <0>         0.1241
     61 H23        -2.9550   -2.0204    3.7367 H         1 <0>         0.1220
     62 H24        -3.8398   -3.8544    2.3522 H         1 <0>         0.1196
     63 H25        -2.4873   -4.7681    0.5085 H         1 <0>         0.1199
     64 H26        -0.2532   -3.8426    0.0445 H         1 <0>         0.1185
     65 H27         1.7062    2.0302   -3.3119 H         1 <0>         0.0766
     66 H28         0.2921    1.0621   -3.7930 H         1 <0>         0.0704
     67 H29         0.0645    2.6013   -2.9285 H         1 <0>         0.0802
@<TRIPOS>BOND
     1    1    2 1
     2    1   39 1
     3    1   40 1
     4    1   41 1
     5    2    6 1
     6    2    3 2
     7    3    4 1
     8    3   38 1
     9    4    5 1
    10    5    6 2
    11    5   31 1
    12    6    7 1
    13    7   12 ar
    14    7    8 ar
    15    8    9 ar
    16    8   42 1
    17    9   10 ar
    18    9   43 1
    19   10   11 ar
    20   10   13 1
    21   11   12 ar
    22   11   44 1
    23   12   45 1
    24   13   18 ar
    25   13   14 ar
    26   14   15 ar
    27   14   46 1
    28   15   16 ar
    29   15   47 1
    30   16   17 ar
    31   16   19 1
    32   17   18 ar
    33   17   48 1
    34   18   49 1
    35   19   20 1
    36   20   21 1
    37   20   28 1
    38   20   50 1
    39   21   22 1
    40   21   51 1
    41   21   52 1
    42   22   27 ar
    43   22   23 ar
    44   23   24 ar
    45   23   53 1
    46   24   25 ar
    47   24   54 1
    48   25   26 ar
    49   25   55 1
    50   26   27 ar
    51   26   56 1
    52   27   57 1
    53   28   29 2
    54   28   30 1
    55   31   32 1
    56   31   58 1
    57   31   59 1
    58   32   37 ar
    59   32   33 ar
    60   33   34 ar
    61   33   60 1
    62   34   35 ar
    63   34   61 1
    64   35   36 ar
    65   35   62 1
    66   36   37 ar
    67   36   63 1
    68   37   64 1
    69   38   65 1
    70   38   66 1
    71   38   67 1
@<TRIPOS>MOLECULE
CHEMBL26329__1
   67    71     0     0     0
SMALL
USER_CHARGES

@<TRIPOS>ATOM
      1 C1          0.4210    1.4253    0.0374 C.3       1 <0>        -0.1031
      2 C2          0.1957   -0.0648    0.0279 C.2       1 <0>        -0.1071
      3 C3          0.1884   -0.7499   -1.1375 C.2       1 <0>        -0.1530
      4 S1         -0.1100   -2.4226   -0.5916 S.3       1 <0>         0.0262
      5 C4         -0.2074   -2.1072    1.1626 C.2       1 <0>        -0.1200
      6 C5         -0.0022   -0.7565    1.2194 C.2       1 <0>        -0.0705
      7 C6          0.0039   -0.0443    2.5201 C.ar      1 <0>        -0.0398
      8 C7          1.0037   -0.3094    3.4556 C.ar      1 <0>        -0.1015
      9 C8          1.0093    0.3522    4.6638 C.ar      1 <0>        -0.1189
     10 C9          0.0152    1.2871    4.9515 C.ar      1 <0>        -0.0097
     11 C10        -0.9846    1.5522    4.0160 C.ar      1 <0>        -0.1203
     12 C11        -0.9869    0.8949    2.8055 C.ar      1 <0>        -0.0974
     13 C12         0.0211    1.9989    6.2524 C.ar      1 <0>        -0.1179
     14 C13         1.0228    1.7389    7.1865 C.ar      1 <0>        -0.0612
     15 C14         1.0257    2.4029    8.3951 C.ar      1 <0>        -0.2010
     16 C15         0.0324    3.3295    8.6822 C.ar      1 <0>         0.1796
     17 C16        -0.9665    3.5906    7.7541 C.ar      1 <0>        -0.1658
     18 C17        -0.9720    2.9338    6.5415 C.ar      1 <0>        -0.0671
     19 O1          0.0378    3.9817    9.8742 O.3       1 <0>        -0.2883
     20 C18         1.1576    3.7554   10.7325 C.3       1 <0>         0.0229
     21 C19         1.3282    4.9495   11.6738 C.3       1 <0>        -0.0638
     22 C20         1.6822    6.1751   10.8715 C.ar      1 <0>        -0.0701
     23 C21         3.0072    6.4752   10.6163 C.ar      1 <0>        -0.1196
     24 C22         3.3319    7.5994    9.8803 C.ar      1 <0>        -0.1229
     25 C23         2.3315    8.4232    9.3991 C.ar      1 <0>        -0.1328
     26 C24         1.0065    8.1226    9.6535 C.ar      1 <0>        -0.1226
     27 C25         0.6816    6.9960   10.3859 C.ar      1 <0>        -0.1035
     28 C26         0.9251    2.5063   11.5428 C.2       1 <0>         0.4810
     29 O2          1.8030    2.0824   12.2750 O.co2     1 <0>        -0.6892
     30 O3         -0.1409    1.9196   11.4662 O.co2     1 <0>        -0.6697
     31 C27        -0.4478   -3.0786    2.2894 C.3       1 <0>         0.0018
     32 C28        -1.9281   -3.1909    2.5487 C.ar      1 <0>        -0.0792
     33 C29        -2.5379   -2.3409    3.4523 C.ar      1 <0>        -0.1007
     34 C30        -3.8957   -2.4439    3.6901 C.ar      1 <0>        -0.1170
     35 C31        -4.6438   -3.3965    3.0240 C.ar      1 <0>        -0.1211
     36 C32        -4.0342   -4.2459    2.1197 C.ar      1 <0>        -0.1219
     37 C33        -2.6771   -4.1401    1.8787 C.ar      1 <0>        -0.1130
     38 C34         0.3823   -0.2330   -2.5398 C.3       1 <0>        -0.0671
     39 H1          1.4884    1.6308    0.1187 H         1 <0>         0.0674
     40 H2          0.0374    1.8566   -0.8872 H         1 <0>         0.0631
     41 H3         -0.0997    1.8661    0.8875 H         1 <0>         0.0725
     42 H4          1.7733   -1.0336    3.2330 H         1 <0>         0.1195
     43 H5          1.7834    0.1466    5.3884 H         1 <0>         0.1258
     44 H6         -1.7546    2.2759    4.2390 H         1 <0>         0.1249
     45 H7         -1.7584    1.1037    2.0792 H         1 <0>         0.1185
     46 H8          1.7956    1.0180    6.9639 H         1 <0>         0.1212
     47 H9          1.8013    2.2017    9.1193 H         1 <0>         0.1292
     48 H10        -1.7380    4.3117    7.9805 H         1 <0>         0.1268
     49 H11        -1.7470    3.1404    5.8183 H         1 <0>         0.1244
     50 H12         2.0584    3.6356   10.1306 H         1 <0>         0.0669
     51 H13         0.3965    5.1241   12.2118 H         1 <0>         0.0786
     52 H14         2.1255    4.7392   12.3867 H         1 <0>         0.0964
     53 H15         3.7888    5.8316   10.9922 H         1 <0>         0.1212
     54 H16         4.3671    7.8343    9.6815 H         1 <0>         0.1171
     55 H17         2.5852    9.3019    8.8247 H         1 <0>         0.1152
     56 H18         0.2249    8.7664    9.2779 H         1 <0>         0.1171
     57 H19        -0.3538    6.7591   10.5815 H         1 <0>         0.1226
     58 H20        -0.0515   -4.0567    2.0166 H         1 <0>         0.0868
     59 H21         0.0527   -2.7219    3.1896 H         1 <0>         0.0987
     60 H22        -1.9534   -1.5966    3.9727 H         1 <0>         0.1241
     61 H23        -4.3721   -1.7803    4.3966 H         1 <0>         0.1227
     62 H24        -5.7045   -3.4775    3.2104 H         1 <0>         0.1198
     63 H25        -4.6186   -4.9904    1.5995 H         1 <0>         0.1198
     64 H26        -2.2014   -4.8012    1.1694 H         1 <0>         0.1183
     65 H27         1.4419   -0.2614   -2.7942 H         1 <0>         0.0762
     66 H28        -0.1757   -0.8573   -3.2375 H         1 <0>         0.0704
     67 H29         0.0212    0.7935   -2.6018 H         1 <0>         0.0798
@<TRIPOS>BOND
     1    1    2 1
     2    1   39 1
     3    1   40 1
     4    1   41 1
     5    2    6 1
     6    2    3 2
     7    3    4 1
     8    3   38 1
     9    4    5 1
    10    5    6 2
    11    5   31 1
    12    6    7 1
    13    7   12 ar
    14    7    8 ar
    15    8    9 ar
    16    8   42 1
    17    9   10 ar
    18    9   43 1
    19   10   11 ar
    20   10   13 1
    21   11   12 ar
    22   11   44 1
    23   12   45 1
    24   13   18 ar
    25   13   14 ar
    26   14   15 ar
    27   14   46 1
    28   15   16 ar
    29   15   47 1
    30   16   17 ar
    31   16   19 1
    32   17   18 ar
    33   17   48 1
    34   18   49 1
    35   19   20 1
    36   20   21 1
    37   20   28 1
    38   20   50 1
    39   21   22 1
    40   21   51 1
    41   21   52 1
    42   22   27 ar
    43   22   23 ar
    44   23   24 ar
    45   23   53 1
    46   24   25 ar
    47   24   54 1
    48   25   26 ar
    49   25   55 1
    50   26   27 ar
    51   26   56 1
    52   27   57 1
    53   28   29 2
    54   28   30 1
    55   31   32 1
    56   31   58 1
    57   31   59 1
    58   32   37 ar
    59   32   33 ar
    60   33   34 ar
    61   33   60 1
    62   34   35 ar
    63   34   61 1
    64   35   36 ar
    65   35   62 1
    66   36   37 ar
    67   36   63 1
    68   37   64 1
    69   38   65 1
    70   38   66 1
    71   38   67 1
@<TRIPOS>MOLECULE
CHEMBL414204
   51    53     0     0     0
SMALL
USER_CHARGES

@<TRIPOS>ATOM
      1 C1          1.9366   -4.1765    0.0315 C.3       1 <0>        -0.1537
      2 C2          1.0115   -2.9579    0.0204 C.3       1 <0>        -0.1217
      3 C3         -0.4458   -3.4239    0.0241 C.3       1 <0>        -0.1194
      4 C4         -1.3710   -2.2054    0.0130 C.3       1 <0>        -0.0797
      5 C5         -2.8064   -2.6644    0.0166 C.2       1 <0>        -0.0956
      6 C6         -3.4592   -2.8084   -1.1281 C.2       1 <0>        -0.1340
      7 C7         -2.7294   -2.6488   -2.4369 C.3       1 <0>         0.1865
      8 N1         -2.9402   -3.8407   -3.2621 N.pl3     1 <0>        -0.4890
      9 C8         -4.0579   -4.1669   -3.9377 C.2       1 <0>         0.6141
     10 O1         -5.1949   -3.4417   -3.9726 O.3       1 <0>        -0.6536
     11 N2         -3.8577   -5.3113   -4.5601 N.2       1 <0>        -0.6716
     12 C9         -2.6266   -5.7600   -4.3153 C.2       1 <0>         0.5837
     13 O2         -2.1449   -6.7926   -4.7493 O.2       1 <0>        -0.5479
     14 O3         -2.0038   -4.8786   -3.5132 O.3       1 <0>        -0.1688
     15 C10        -3.4864   -2.9542    1.2968 C.ar      1 <0>         0.0046
     16 C11        -3.7207   -1.9279    2.2132 C.ar      1 <0>        -0.1428
     17 C12        -4.3561   -2.2016    3.4070 C.ar      1 <0>        -0.0816
     18 C13        -4.7618   -3.4908    3.6994 C.ar      1 <0>        -0.2130
     19 C14        -4.5330   -4.5178    2.7940 C.ar      1 <0>         0.1290
     20 C15        -3.9011   -4.2526    1.5904 C.ar      1 <0>        -0.1323
     21 O4         -4.9334   -5.7831    3.0867 O.3       1 <0>        -0.3066
     22 C16        -5.5833   -5.9835    4.3434 C.3       1 <0>         0.1030
     23 C17        -5.9523   -7.4371    4.4920 C.ar      1 <0>        -0.0689
     24 C18        -7.1788   -7.8880    4.0415 C.ar      1 <0>        -0.0797
     25 C19        -7.5184   -9.2223    4.1780 C.ar      1 <0>        -0.0260
     26 C20        -6.6299  -10.1052    4.7650 C.ar      1 <0>        -0.0932
     27 C21        -5.4024   -9.6535    5.2152 C.ar      1 <0>        -0.0269
     28 C22        -5.0619   -8.3200    5.0735 C.ar      1 <0>        -0.0810
     29 Cl1        -4.2870  -10.7607    5.9525 Cl        1 <0>        -0.0531
     30 Cl2        -9.0593   -9.7882    3.6132 Cl        1 <0>        -0.0506
     31 H1          2.9748   -3.8444    0.0289 H         1 <0>         0.0505
     32 H2          1.7468   -4.7686    0.9268 H         1 <0>         0.0516
     33 H3          1.7473   -4.7845   -0.8531 H         1 <0>         0.0572
     34 H4          1.2008   -2.3499    0.9050 H         1 <0>         0.0578
     35 H5          1.2013   -2.3658   -0.8749 H         1 <0>         0.0609
     36 H6         -0.6351   -4.0320   -0.8605 H         1 <0>         0.0703
     37 H7         -0.6356   -4.0161    0.9194 H         1 <0>         0.0620
     38 H8         -1.1817   -1.5974    0.8976 H         1 <0>         0.0711
     39 H9         -1.1812   -1.6133   -0.8823 H         1 <0>         0.0757
     40 H10        -4.5140   -3.0400   -1.1228 H         1 <0>         0.1221
     41 H11        -3.1104   -1.7721   -2.9608 H         1 <0>         0.0986
     42 H12        -1.6636   -2.5231   -2.2457 H         1 <0>         0.0946
     43 H13        -3.4045   -0.9200    1.9882 H         1 <0>         0.1253
     44 H14        -4.5369   -1.4067    4.1154 H         1 <0>         0.1243
     45 H15        -5.2581   -3.6994    4.6357 H         1 <0>         0.1249
     46 H16        -3.7261   -5.0500    0.8833 H         1 <0>         0.1324
     47 H17        -4.9100   -5.6953    5.1507 H         1 <0>         0.0773
     48 H18        -6.4854   -5.3733    4.3874 H         1 <0>         0.0781
     49 H19        -7.8724   -7.1985    3.5832 H         1 <0>         0.1446
     50 H20        -6.8947  -11.1468    4.8720 H         1 <0>         0.1470
     51 H21        -4.1018   -7.9680    5.4209 H         1 <0>         0.1433
@<TRIPOS>BOND
     1    1    2 1
     2    1   31 1
     3    1   32 1
     4    1   33 1
     5    2    3 1
     6    2   34 1
     7    2   35 1
     8    3    4 1
     9    3   36 1
    10    3   37 1
    11    4    5 1
    12    4   38 1
    13    4   39 1
    14    5    6 2
    15    5   15 1
    16    6    7 1
    17    6   40 1
    18    7    8 1
    19    7   41 1
    20    7   42 1
    21    8   14 1
    22    8    9 1
    23    9   10 1
    24    9   11 2
    25   11   12 1
    26   12   13 2
    27   12   14 1
    28   15   20 ar
    29   15   16 ar
    30   16   17 ar
    31   16   43 1
    32   17   18 ar
    33   17   44 1
    34   18   19 ar
    35   18   45 1
    36   19   20 ar
    37   19   21 1
    38   20   46 1
    39   21   22 1
    40   22   23 1
    41   22   47 1
    42   22   48 1
    43   23   28 ar
    44   23   24 ar
    45   24   25 ar
    46   24   49 1
    47   25   26 ar
    48   25   30 1
    49   26   27 ar
    50   26   50 1
    51   27   28 ar
    52   27   29 1
    53   28   51 1
@<TRIPOS>MOLECULE
CHEMBL414204__1
   52    54     0     0     0
SMALL
USER_CHARGES

@<TRIPOS>ATOM
      1 C1         -0.9252   -4.2238    1.5788 C.3       1 <0>        -0.1549
      2 C2         -0.4722   -2.9824    0.8078 C.3       1 <0>        -0.1240
      3 C3          0.2600   -3.4117   -0.4652 C.3       1 <0>        -0.1171
      4 C4          0.7130   -2.1703   -1.2363 C.3       1 <0>        -0.0933
      5 C5          1.4343   -2.5931   -2.4901 C.2       1 <0>        -0.0425
      6 C6          2.7541   -2.7166   -2.4858 C.2       1 <0>        -0.1821
      7 C7          3.5204   -2.5708   -1.1964 C.3       1 <0>         0.1888
      8 N1          4.3590   -3.7542   -0.9902 N.am      1 <0>        -0.4650
      9 C8          5.5099   -4.0467   -1.6306 C.2       1 <0>         0.6924
     10 O1          6.0399   -3.3675   -2.4897 O.2       1 <0>        -0.4994
     11 N2          5.9712   -5.2184   -1.1561 N.am      1 <0>        -0.6783
     12 H1          6.7853   -5.6584   -1.4467 H         1 <0>         0.4551
     13 C9          5.1295   -5.6849   -0.2161 C.2       1 <0>         0.6419
     14 O2          5.2633   -6.7215    0.4050 O.2       1 <0>        -0.4587
     15 O3          4.1209   -4.8113   -0.0741 O.3       1 <0>        -0.0980
     16 C10         0.6700   -2.8702   -3.7246 C.ar      1 <0>        -0.0161
     17 C11        -0.0226   -1.8415   -4.3652 C.ar      1 <0>        -0.1390
     18 C12        -0.7347   -2.1034   -5.5177 C.ar      1 <0>        -0.0768
     19 C13        -0.7651   -3.3830   -6.0409 C.ar      1 <0>        -0.2051
     20 C14        -0.0793   -4.4122   -5.4106 C.ar      1 <0>         0.1310
     21 C15         0.6432   -4.1589   -4.2565 C.ar      1 <0>        -0.1327
     22 O4         -0.1130   -5.6681   -5.9289 O.3       1 <0>        -0.3077
     23 C16        -0.8735   -5.8566   -7.1240 C.3       1 <0>         0.1031
     24 C17        -0.7951   -7.3009   -7.5468 C.ar      1 <0>        -0.0719
     25 C18         0.2150   -7.7193   -8.3925 C.ar      1 <0>        -0.0812
     26 C19         0.2873   -9.0451   -8.7814 C.ar      1 <0>        -0.0265
     27 C20        -0.6513   -9.9522   -8.3233 C.ar      1 <0>        -0.0915
     28 C21        -1.6617   -9.5330   -7.4766 C.ar      1 <0>        -0.0265
     29 C22        -1.7299   -8.2079   -7.0842 C.ar      1 <0>        -0.0812
     30 Cl1        -2.8404  -10.6704   -6.9016 Cl        1 <0>        -0.0487
     31 Cl2         1.5553   -9.5702   -9.8445 Cl        1 <0>        -0.0488
     32 H2         -1.5965   -4.8141    0.9551 H         1 <0>         0.0537
     33 H3         -0.0550   -4.8238    1.8451 H         1 <0>         0.0550
     34 H4         -1.4469   -3.9179    2.4857 H         1 <0>         0.0546
     35 H5         -1.3424   -2.3824    0.5415 H         1 <0>         0.0624
     36 H6          0.1990   -2.3921    1.4315 H         1 <0>         0.0620
     37 H7          1.1302   -4.0117   -0.1990 H         1 <0>         0.0653
     38 H8         -0.4112   -4.0020   -1.0890 H         1 <0>         0.0666
     39 H9         -0.1572   -1.5703   -1.5025 H         1 <0>         0.0814
     40 H10         1.3843   -1.5800   -0.6125 H         1 <0>         0.0787
     41 H11         3.2803   -2.9217   -3.4065 H         1 <0>         0.1263
     42 H12         4.1509   -1.6831   -1.2469 H         1 <0>         0.1195
     43 H13         2.8203   -2.4726   -0.3668 H         1 <0>         0.1187
     44 H14        -0.0015   -0.8412   -3.9588 H         1 <0>         0.1275
     45 H15        -1.2702   -1.3067   -6.0124 H         1 <0>         0.1289
     46 H16        -1.3247   -3.5824   -6.9428 H         1 <0>         0.1291
     47 H17         1.1805   -4.9579   -3.7674 H         1 <0>         0.1303
     48 H18        -1.9136   -5.5882   -6.9389 H         1 <0>         0.0797
     49 H19        -0.4702   -5.2241   -7.9148 H         1 <0>         0.0797
     50 H20         0.9477   -7.0111   -8.7501 H         1 <0>         0.1435
     51 H21        -0.5955  -10.9871   -8.6269 H         1 <0>         0.1484
     52 H22        -2.5161   -7.8814   -6.4196 H         1 <0>         0.1436
@<TRIPOS>BOND
     1    1    2 1
     2    1   32 1
     3    1   33 1
     4    1   34 1
     5    2    3 1
     6    2   35 1
     7    2   36 1
     8    3    4 1
     9    3   37 1
    10    3   38 1
    11    4    5 1
    12    4   39 1
    13    4   40 1
    14    5    6 2
    15    5   16 1
    16    6    7 1
    17    6   41 1
    18    7    8 1
    19    7   42 1
    20    7   43 1
    21    8   15 1
    22    8    9 am
    23    9   10 2
    24    9   11 am
    25   11   12 1
    26   11   13 am
    27   13   14 2
    28   13   15 1
    29   16   21 ar
    30   16   17 ar
    31   17   18 ar
    32   17   44 1
    33   18   19 ar
    34   18   45 1
    35   19   20 ar
    36   19   46 1
    37   20   21 ar
    38   20   22 1
    39   21   47 1
    40   22   23 1
    41   23   24 1
    42   23   48 1
    43   23   49 1
    44   24   29 ar
    45   24   25 ar
    46   25   26 ar
    47   25   50 1
    48   26   27 ar
    49   26   31 1
    50   27   28 ar
    51   27   51 1
    52   28   29 ar
    53   28   30 1
    54   29   52 1
@<TRIPOS>MOLECULE
CHEMBL25825
   67    72     0     0     0
SMALL
USER_CHARGES

@<TRIPOS>ATOM
      1 C1          0.9680    0.5479    3.3240 C.ar      1 <0>        -0.1246
      2 C2          2.0106    1.3953    2.9991 C.ar      1 <0>        -0.1213
      3 C3          2.9877    0.9811    2.1133 C.ar      1 <0>        -0.1134
      4 C4          2.9224   -0.2809    1.5528 C.ar      1 <0>        -0.0741
      5 C5          1.8803   -1.1287    1.8785 C.ar      1 <0>        -0.1080
      6 C6          0.9024   -0.7139    2.7632 C.ar      1 <0>        -0.1171
      7 C7          3.9870   -0.7322    0.5864 C.3       1 <0>        -0.0130
      8 C8          5.1491   -1.3093    1.3529 C.2       1 <0>        -0.1556
      9 C9          6.2788   -0.5737    1.9251 C.ar      1 <0>        -0.1145
     10 C10         6.6449    0.7728    1.9628 C.ar      1 <0>        -0.0708
     11 C11         7.7975    1.1441    2.5972 C.ar      1 <0>        -0.1360
     12 C12         8.6046    0.1913    3.2024 C.ar      1 <0>        -0.0970
     13 C13         8.2600   -1.1435    3.1753 C.ar      1 <0>        -0.1054
     14 C14         7.0927   -1.5435    2.5372 C.ar      1 <0>         0.0527
     15 O1          6.5064   -2.7433    2.3493 O.3       1 <0>        -0.1851
     16 C15         5.3573   -2.6133    1.6571 C.2       1 <0>         0.0923
     17 C16         4.4609   -3.7260    1.2830 C.ar      1 <0>        -0.0498
     18 C17         4.0129   -3.8500   -0.0344 C.ar      1 <0>        -0.0830
     19 C18         3.1774   -4.8875   -0.3820 C.ar      1 <0>        -0.1222
     20 C19         2.7781   -5.8148    0.5808 C.ar      1 <0>         0.0075
     21 C20         3.2249   -5.6918    1.8968 C.ar      1 <0>        -0.1229
     22 C21         4.0651   -4.6584    2.2452 C.ar      1 <0>        -0.0808
     23 C22         1.8779   -6.9313    0.2055 C.ar      1 <0>        -0.1249
     24 C23         1.4344   -7.0591   -1.1103 C.ar      1 <0>        -0.0571
     25 C24         0.5972   -8.0986   -1.4562 C.ar      1 <0>        -0.2024
     26 C25         0.1954   -9.0174   -0.4958 C.ar      1 <0>         0.1837
     27 C26         0.6353   -8.8930    0.8152 C.ar      1 <0>        -0.1667
     28 C27         1.4776   -7.8592    1.1662 C.ar      1 <0>        -0.0630
     29 O2         -0.6303  -10.0401   -0.8396 O.3       1 <0>        -0.2872
     30 C28        -1.1363  -10.0442   -2.1761 C.3       1 <0>         0.0224
     31 C29        -2.4497  -10.8277   -2.2217 C.3       1 <0>        -0.0639
     32 C30        -3.4916  -10.1098   -1.4032 C.ar      1 <0>        -0.0706
     33 C31        -3.6306  -10.3948   -0.0577 C.ar      1 <0>        -0.1036
     34 C32        -4.5863   -9.7363    0.6932 C.ar      1 <0>        -0.1225
     35 C33        -5.4028   -8.7925    0.0986 C.ar      1 <0>        -0.1327
     36 C34        -5.2632   -8.5069   -1.2467 C.ar      1 <0>        -0.1228
     37 C35        -4.3046   -9.1623   -1.9966 C.ar      1 <0>        -0.1195
     38 C36        -0.1314  -10.6945   -3.0917 C.2       1 <0>         0.4810
     39 O3          0.8790  -11.1966   -2.6295 O.co2     1 <0>        -0.6697
     40 O4         -0.3286  -10.7184   -4.2946 O.co2     1 <0>        -0.6886
     41 H1          0.2071    0.8699    4.0195 H         1 <0>         0.1190
     42 H2          2.0616    2.3813    3.4369 H         1 <0>         0.1190
     43 H3          3.8019    1.6434    1.8589 H         1 <0>         0.1173
     44 H4          1.8290   -2.1145    1.4403 H         1 <0>         0.1225
     45 H5          0.0880   -1.3762    3.0173 H         1 <0>         0.1215
     46 H6          3.5762   -1.4926   -0.0777 H         1 <0>         0.0890
     47 H7          4.3274    0.1193   -0.0028 H         1 <0>         0.0837
     48 H8          6.0204    1.5180    1.4926 H         1 <0>         0.1245
     49 H9          8.0820    2.1855    2.6271 H         1 <0>         0.1279
     50 H10         9.5126    0.4986    3.6998 H         1 <0>         0.1336
     51 H11         8.8961   -1.8764    3.6492 H         1 <0>         0.1313
     52 H12         4.3217   -3.1321   -0.7798 H         1 <0>         0.1284
     53 H13         2.8307   -4.9833   -1.4004 H         1 <0>         0.1331
     54 H14         2.9152   -6.4102    2.6414 H         1 <0>         0.1308
     55 H15         4.4147   -4.5661    3.2629 H         1 <0>         0.1247
     56 H16         1.7460   -6.3443   -1.8576 H         1 <0>         0.1227
     57 H17         0.2533   -8.1982   -2.4751 H         1 <0>         0.1305
     58 H18         0.3210   -9.6092    1.5599 H         1 <0>         0.1281
     59 H19         1.8230   -7.7656    2.1852 H         1 <0>         0.1257
     60 H20        -1.3134   -9.0189   -2.5006 H         1 <0>         0.0676
     61 H21        -2.7898  -10.9068   -3.2543 H         1 <0>         0.0966
     62 H22        -2.2915  -11.8261   -1.8138 H         1 <0>         0.0788
     63 H23        -2.9926  -11.1322    0.4068 H         1 <0>         0.1227
     64 H24        -4.6953   -9.9594    1.7442 H         1 <0>         0.1172
     65 H25        -6.1500   -8.2785    0.6851 H         1 <0>         0.1153
     66 H26        -5.9014   -7.7698   -1.7113 H         1 <0>         0.1172
     67 H27        -4.1931   -8.9365   -3.0468 H         1 <0>         0.1213
@<TRIPOS>BOND
     1    1    6 ar
     2    1    2 ar
     3    1   41 1
     4    2    3 ar
     5    2   42 1
     6    3    4 ar
     7    3   43 1
     8    4    5 ar
     9    4    7 1
    10    5    6 ar
    11    5   44 1
    12    6   45 1
    13    7    8 1
    14    7   46 1
    15    7   47 1
    16    8   16 2
    17    8    9 1
    18    9   14 ar
    19    9   10 ar
    20   10   11 ar
    21   10   48 1
    22   11   12 ar
    23   11   49 1
    24   12   13 ar
    25   12   50 1
    26   13   14 ar
    27   13   51 1
    28   14   15 1
    29   15   16 1
    30   16   17 1
    31   17   22 ar
    32   17   18 ar
    33   18   19 ar
    34   18   52 1
    35   19   20 ar
    36   19   53 1
    37   20   21 ar
    38   20   23 1
    39   21   22 ar
    40   21   54 1
    41   22   55 1
    42   23   28 ar
    43   23   24 ar
    44   24   25 ar
    45   24   56 1
    46   25   26 ar
    47   25   57 1
    48   26   27 ar
    49   26   29 1
    50   27   28 ar
    51   27   58 1
    52   28   59 1
    53   29   30 1
    54   30   31 1
    55   30   38 1
    56   30   60 1
    57   31   32 1
    58   31   61 1
    59   31   62 1
    60   32   37 ar
    61   32   33 ar
    62   33   34 ar
    63   33   63 1
    64   34   35 ar
    65   34   64 1
    66   35   36 ar
    67   35   65 1
    68   36   37 ar
    69   36   66 1
    70   37   67 1
    71   38   39 2
    72   38   40 1
@<TRIPOS>MOLECULE
CHEMBL25825__1
   67    72     0     0     0
SMALL
USER_CHARGES

@<TRIPOS>ATOM
      1 C1         -0.7296   -0.0630    4.7228 C.ar      1 <0>        -0.1240
      2 C2          0.0493    1.0442    4.4431 C.ar      1 <0>        -0.1216
      3 C3          0.9737    0.9974    3.4163 C.ar      1 <0>        -0.1139
      4 C4          1.1195   -0.1567    2.6695 C.ar      1 <0>        -0.0752
      5 C5          0.3412   -1.2642    2.9498 C.ar      1 <0>        -0.1075
      6 C6         -0.5842   -1.2170    3.9757 C.ar      1 <0>        -0.1163
      7 C7          2.1265   -0.2073    1.5495 C.3       1 <0>        -0.0140
      8 C8          3.4708   -0.6076    2.1005 C.2       1 <0>        -0.1544
      9 C9          4.4898    0.2791    2.6664 C.ar      1 <0>        -0.1144
     10 C10         4.5740    1.6565    2.8758 C.ar      1 <0>        -0.0703
     11 C11         5.6979    2.1880    3.4443 C.ar      1 <0>        -0.1361
     12 C12         6.7540    1.3671    3.8134 C.ar      1 <0>        -0.0971
     13 C13         6.6896    0.0042    3.6142 C.ar      1 <0>        -0.1059
     14 C14         5.5569   -0.5578    3.0390 C.ar      1 <0>         0.0527
     15 O1          5.2097   -1.8227    2.7261 O.3       1 <0>        -0.1856
     16 C15         3.9790   -1.8614    2.1778 C.2       1 <0>         0.0913
     17 C16         3.2891   -3.0866    1.7257 C.ar      1 <0>        -0.0489
     18 C17         2.6663   -3.1171    0.4755 C.ar      1 <0>        -0.0841
     19 C18         2.0235   -4.2595    0.0550 C.ar      1 <0>        -0.1221
     20 C19         1.9939   -5.3865    0.8768 C.ar      1 <0>         0.0074
     21 C20         2.6156   -5.3571    2.1255 C.ar      1 <0>        -0.1227
     22 C21         3.2639   -4.2176    2.5454 C.ar      1 <0>        -0.0814
     23 C22         1.3009   -6.6161    0.4232 C.ar      1 <0>        -0.1249
     24 C23         0.6834   -6.6494   -0.8266 C.ar      1 <0>        -0.0576
     25 C24         0.0397   -7.7946   -1.2455 C.ar      1 <0>        -0.1999
     26 C25         0.0055   -8.9136   -0.4243 C.ar      1 <0>         0.1849
     27 C26         0.6194   -8.8836    0.8208 C.ar      1 <0>        -0.1670
     28 C27         1.2701   -7.7436    1.2430 C.ar      1 <0>        -0.0635
     29 O2         -0.6303  -10.0401   -0.8396 O.3       1 <0>        -0.2879
     30 C28        -1.1363  -10.0442   -2.1761 C.3       1 <0>         0.0222
     31 C29        -1.2488  -11.4864   -2.6744 C.3       1 <0>        -0.0633
     32 C30         0.1269  -12.0946   -2.7670 C.ar      1 <0>        -0.0707
     33 C31         0.8534  -11.9855   -3.9380 C.ar      1 <0>        -0.1197
     34 C32         2.1153  -12.5434   -4.0230 C.ar      1 <0>        -0.1228
     35 C33         2.6509  -13.2101   -2.9369 C.ar      1 <0>        -0.1328
     36 C34         1.9247  -13.3185   -1.7657 C.ar      1 <0>        -0.1226
     37 C35         0.6645  -12.7569   -1.6792 C.ar      1 <0>        -0.1038
     38 C36        -2.4970   -9.3969   -2.2000 C.2       1 <0>         0.4809
     39 O3         -2.9879   -8.9714   -1.1683 O.co2     1 <0>        -0.6696
     40 O4         -3.1069   -9.2986   -3.2512 O.co2     1 <0>        -0.6884
     41 H1         -1.4486   -0.0280    5.5279 H         1 <0>         0.1193
     42 H2         -0.0646    1.9459    5.0265 H         1 <0>         0.1189
     43 H3          1.5817    1.8627    3.1973 H         1 <0>         0.1169
     44 H4          0.4548   -2.1658    2.3662 H         1 <0>         0.1227
     45 H5         -1.1925   -2.0822    4.1945 H         1 <0>         0.1225
     46 H6          1.8065   -0.9373    0.8060 H         1 <0>         0.0896
     47 H7          2.2024    0.7756    1.0845 H         1 <0>         0.0836
     48 H8          3.7550    2.2997    2.5896 H         1 <0>         0.1247
     49 H9          5.7644    3.2536    3.6069 H         1 <0>         0.1279
     50 H10         7.6361    1.8004    4.2613 H         1 <0>         0.1335
     51 H11         7.5179   -0.6250    3.9048 H         1 <0>         0.1311
     52 H12         2.6888   -2.2447   -0.1607 H         1 <0>         0.1289
     53 H13         1.5416   -4.2832   -0.9113 H         1 <0>         0.1331
     54 H14         2.5921   -6.2300    2.7609 H         1 <0>         0.1307
     55 H15         3.7491   -4.1965    3.5100 H         1 <0>         0.1248
     56 H16         0.7090   -5.7791   -1.4656 H         1 <0>         0.1225
     57 H17        -0.4388   -7.8210   -2.2134 H         1 <0>         0.1296
     58 H18         0.5911   -9.7557    1.4572 H         1 <0>         0.1278
     59 H19         1.7513   -7.7225    2.2097 H         1 <0>         0.1255
     60 H20        -0.4579   -9.4881   -2.8231 H         1 <0>         0.0674
     61 H21        -1.8558  -12.0651   -1.9781 H         1 <0>         0.0782
     62 H22        -1.7170  -11.4953   -3.6586 H         1 <0>         0.0977
     63 H23         0.4350  -11.4646   -4.7865 H         1 <0>         0.1213
     64 H24         2.6827  -12.4587   -4.9381 H         1 <0>         0.1172
     65 H25         3.6365  -13.6466   -3.0036 H         1 <0>         0.1153
     66 H26         2.3430  -13.8397   -0.9172 H         1 <0>         0.1171
     67 H27         0.0987  -12.8383   -0.7629 H         1 <0>         0.1225
@<TRIPOS>BOND
     1    1    6 ar
     2    1    2 ar
     3    1   41 1
     4    2    3 ar
     5    2   42 1
     6    3    4 ar
     7    3   43 1
     8    4    5 ar
     9    4    7 1
    10    5    6 ar
    11    5   44 1
    12    6   45 1
    13    7    8 1
    14    7   46 1
    15    7   47 1
    16    8   16 2
    17    8    9 1
    18    9   14 ar
    19    9   10 ar
    20   10   11 ar
    21   10   48 1
    22   11   12 ar
    23   11   49 1
    24   12   13 ar
    25   12   50 1
    26   13   14 ar
    27   13   51 1
    28   14   15 1
    29   15   16 1
    30   16   17 1
    31   17   22 ar
    32   17   18 ar
    33   18   19 ar
    34   18   52 1
    35   19   20 ar
    36   19   53 1
    37   20   21 ar
    38   20   23 1
    39   21   22 ar
    40   21   54 1
    41   22   55 1
    42   23   28 ar
    43   23   24 ar
    44   24   25 ar
    45   24   56 1
    46   25   26 ar
    47   25   57 1
    48   26   27 ar
    49   26   29 1
    50   27   28 ar
    51   27   58 1
    52   28   59 1
    53   29   30 1
    54   30   31 1
    55   30   38 1
    56   30   60 1
    57   31   32 1
    58   31   61 1
    59   31   62 1
    60   32   37 ar
    61   32   33 ar
    62   33   34 ar
    63   33   63 1
    64   34   35 ar
    65   34   64 1
    66   35   36 ar
    67   35   65 1
    68   36   37 ar
    69   36   66 1
    70   37   67 1
    71   38   39 2
    72   38   40 1
@<TRIPOS>MOLECULE
CHEMBL260914
   27    28     0     0     0
SMALL
USER_CHARGES

@<TRIPOS>ATOM
      1 C1          0.0195    1.3848    0.4432 C.ar      1 <0>        -0.0661
      2 C2          1.2014    2.0532    0.3002 C.ar      1 <0>        -0.1271
      3 C3          2.3811    1.3377    0.0481 C.ar      1 <0>         0.0873
      4 N1          2.3811    0.0228   -0.0563 N.ar      1 <0>        -0.4068
      5 C4          1.2581   -0.6820    0.0740 C.ar      1 <0>         0.1306
      6 C5          0.0298   -0.0179    0.3305 C.ar      1 <0>        -0.0737
      7 C6         -1.1488   -0.7687    0.4659 C.ar      1 <0>        -0.1106
      8 C7         -1.1006   -2.1252    0.3502 C.ar      1 <0>        -0.0314
      9 C8          0.1053   -2.7805    0.0985 C.ar      1 <0>        -0.1096
     10 C9          1.2662   -2.0860   -0.0384 C.ar      1 <0>        -0.0101
     11 C10         0.1214   -4.2825   -0.0230 C.3       1 <0>        -0.2314
     12 F1         -0.4506   -4.8491    1.1211 F         1 <0>        -0.2007
     13 F2         -0.6122   -4.6671   -1.1504 F         1 <0>        -0.2023
     14 P1          1.8423   -4.8601   -0.1916 P.3       1 <0>         2.1277
     15 O1          2.4453   -4.3201   -1.5330 O.2       1 <0>        -1.1283
     16 O2          2.6915   -4.3300    1.0135 O.3       1 <0>        -1.1278
     17 O3          1.8689   -6.4265   -0.2002 O.3       1 <0>        -1.1335
     18 Br1        -2.6896   -3.1339    0.5336 Br        1 <0>        -0.0431
     19 C11         3.6574    2.0764   -0.1049 C.2       1 <0>         0.5862
     20 O4          3.6731    3.2878   -0.0117 O.2       1 <0>        -0.5530
     21 N2          4.8001    1.4043   -0.3474 N.am      1 <0>        -0.8308
     22 H1         -0.8983    1.9182    0.6420 H         1 <0>         0.1430
     23 H2          1.2278    3.1298    0.3806 H         1 <0>         0.1464
     24 H3         -2.0885   -0.2736    0.6611 H         1 <0>         0.1390
     25 H4          2.1908   -2.6088   -0.2337 H         1 <0>         0.2026
     26 H5          4.7875    0.4372   -0.4218 H         1 <0>         0.4218
     27 H6          5.6352    1.8876   -0.4476 H         1 <0>         0.4019
@<TRIPOS>BOND
     1    1    6 ar
     2    1    2 ar
     3    1   22 1
     4    2    3 ar
     5    2   23 1
     6    3    4 ar
     7    3   19 1
     8    4    5 ar
     9    5   10 ar
    10    5    6 ar
    11    6    7 ar
    12    7    8 ar
    13    7   24 1
    14    8    9 ar
    15    8   18 1
    16    9   10 ar
    17    9   11 1
    18   10   25 1
    19   11   12 1
    20   11   13 1
    21   11   14 1
    22   14   15 2
    23   14   16 1
    24   14   17 1
    25   19   20 2
    26   19   21 am
    27   21   26 1
    28   21   27 1
@<TRIPOS>MOLECULE
CHEMBL7048
   61    65     0     0     0
SMALL
USER_CHARGES

@<TRIPOS>ATOM
      1 C1         -0.3885    1.7866    0.3170 C.3       1 <0>        -0.1154
      2 C2         -0.2297    0.2880    0.3253 C.2       1 <0>        -0.0975
      3 C3         -0.0397   -0.3520    1.4705 C.2       1 <0>        -0.1384
      4 C4         -0.1041    0.4010    2.7743 C.3       1 <0>         0.1890
      5 N1         -1.0809   -0.2381    3.6595 N.pl3     1 <0>        -0.4903
      6 C5         -0.9199   -1.3864    4.3434 C.2       1 <0>         0.6143
      7 O1          0.1857   -2.1595    4.3319 O.3       1 <0>        -0.6538
      8 N2         -2.0202   -1.6302    5.0266 N.2       1 <0>        -0.6716
      9 C6         -2.9174   -0.6673    4.8145 C.2       1 <0>         0.5837
     10 O2         -4.0320   -0.6110    5.3057 O.2       1 <0>        -0.5477
     11 O3         -2.3835    0.2340    3.9716 O.3       1 <0>        -0.1695
     12 C7         -0.2859   -0.4682   -0.9436 C.ar      1 <0>         0.0034
     13 C8          0.8411   -1.1525   -1.4015 C.ar      1 <0>        -0.1425
     14 C9          0.7852   -1.8578   -2.5861 C.ar      1 <0>        -0.0779
     15 C10        -0.3848   -1.8890   -3.3225 C.ar      1 <0>        -0.2125
     16 C11        -1.5106   -1.2115   -2.8748 C.ar      1 <0>         0.1295
     17 C12        -1.4667   -0.5053   -1.6842 C.ar      1 <0>        -0.1362
     18 O4         -2.6578   -1.2452   -3.6027 O.3       1 <0>        -0.3081
     19 C13        -2.6333   -1.9969   -4.8178 C.3       1 <0>         0.1457
     20 C14        -3.9831   -1.9198   -5.4835 C.2       1 <0>         0.0043
     21 C15        -4.9899   -2.8267   -5.3637 C.2       1 <0>         0.0452
     22 O5         -6.0172   -2.3783   -6.1188 O.3       1 <0>        -0.1807
     23 C16        -5.6327   -1.2198   -6.6830 C.2       1 <0>         0.2213
     24 N3         -4.4088   -0.9444   -6.2936 N.2       1 <0>        -0.4373
     25 C17        -6.4542   -0.3899   -7.5877 C.ar      1 <0>         0.0206
     26 C18        -7.7514   -0.7866   -7.9188 C.ar      1 <0>        -0.0912
     27 C19        -8.5133   -0.0066   -8.7638 C.ar      1 <0>        -0.0686
     28 C20        -7.9946    1.1663   -9.2834 C.ar      1 <0>        -0.1690
     29 C21        -6.7099    1.5653   -8.9595 C.ar      1 <0>        -0.0685
     30 C22        -5.9392    0.7978   -8.1110 C.ar      1 <0>        -0.0717
     31 C23        -8.8325    2.0127  -10.2067 C.3       1 <0>         0.5087
     32 F1         -9.5609    2.9413   -9.4555 F         1 <0>        -0.1734
     33 F2         -7.9991    2.6894  -11.1038 F         1 <0>        -0.1748
     34 F3         -9.7154    1.1930  -10.9180 F         1 <0>        -0.1755
     35 C24        -4.9647   -4.0668   -4.5614 C.ar      1 <0>        -0.0384
     36 C25        -4.5130   -4.0385   -3.2405 C.ar      1 <0>        -0.0810
     37 C26        -4.4921   -5.2002   -2.4970 C.ar      1 <0>        -0.1137
     38 C27        -4.9171   -6.3917   -3.0575 C.ar      1 <0>        -0.0971
     39 C28        -5.3656   -6.4271   -4.3660 C.ar      1 <0>        -0.1215
     40 C29        -5.3980   -5.2716   -5.1187 C.ar      1 <0>        -0.0897
     41 H1          0.4669    2.2453    0.8130 H         1 <0>         0.0714
     42 H2         -0.4442    2.1403   -0.7125 H         1 <0>         0.0630
     43 H3         -1.3029    2.0580    0.8444 H         1 <0>         0.0720
     44 H4          0.1614   -1.4132    1.4691 H         1 <0>         0.1223
     45 H5          0.8772    0.3910    3.2485 H         1 <0>         0.1007
     46 H6         -0.4053    1.4312    2.5843 H         1 <0>         0.0924
     47 H7          1.7567   -1.1295   -0.8291 H         1 <0>         0.1272
     48 H8          1.6579   -2.3868   -2.9394 H         1 <0>         0.1256
     49 H9         -0.4227   -2.4421   -4.2493 H         1 <0>         0.1246
     50 H10        -2.3432    0.0189   -1.3327 H         1 <0>         0.1313
     51 H11        -1.8754   -1.5854   -5.4844 H         1 <0>         0.0843
     52 H12        -2.3962   -3.0375   -4.5965 H         1 <0>         0.0835
     53 H13        -8.1572   -1.7022   -7.5145 H         1 <0>         0.1446
     54 H14        -9.5167   -0.3123   -9.0208 H         1 <0>         0.1456
     55 H15        -6.3111    2.4817   -9.3688 H         1 <0>         0.1473
     56 H16        -4.9382    1.1126   -7.8554 H         1 <0>         0.1529
     57 H17        -4.1804   -3.1092   -2.8021 H         1 <0>         0.1358
     58 H18        -4.1430   -5.1797   -1.4752 H         1 <0>         0.1362
     59 H19        -4.8984   -7.2985   -2.4710 H         1 <0>         0.1304
     60 H20        -5.6952   -7.3606   -4.7975 H         1 <0>         0.1302
     61 H21        -5.7528   -5.2996   -6.1384 H         1 <0>         0.1265
@<TRIPOS>BOND
     1    1    2 1
     2    1   41 1
     3    1   42 1
     4    1   43 1
     5    2    3 2
     6    2   12 1
     7    3    4 1
     8    3   44 1
     9    4    5 1
    10    4   45 1
    11    4   46 1
    12    5   11 1
    13    5    6 1
    14    6    7 1
    15    6    8 2
    16    8    9 1
    17    9   10 2
    18    9   11 1
    19   12   17 ar
    20   12   13 ar
    21   13   14 ar
    22   13   47 1
    23   14   15 ar
    24   14   48 1
    25   15   16 ar
    26   15   49 1
    27   16   17 ar
    28   16   18 1
    29   17   50 1
    30   18   19 1
    31   19   20 1
    32   19   51 1
    33   19   52 1
    34   20   24 1
    35   20   21 2
    36   21   22 1
    37   21   35 1
    38   22   23 1
    39   23   24 2
    40   23   25 1
    41   25   30 ar
    42   25   26 ar
    43   26   27 ar
    44   26   53 1
    45   27   28 ar
    46   27   54 1
    47   28   29 ar
    48   28   31 1
    49   29   30 ar
    50   29   55 1
    51   30   56 1
    52   31   32 1
    53   31   33 1
    54   31   34 1
    55   35   40 ar
    56   35   36 ar
    57   36   37 ar
    58   36   57 1
    59   37   38 ar
    60   37   58 1
    61   38   39 ar
    62   38   59 1
    63   39   40 ar
    64   39   60 1
    65   40   61 1
@<TRIPOS>MOLECULE
CHEMBL7048__1
   62    66     0     0     0
SMALL
USER_CHARGES

@<TRIPOS>ATOM
      1 C1         -0.3886    1.7866    0.3170 C.3       1 <0>        -0.1302
      2 C2         -0.2298    0.2880    0.3253 C.2       1 <0>        -0.0439
      3 C3         -0.0397   -0.3520    1.4705 C.2       1 <0>        -0.1871
      4 C4         -0.1041    0.4010    2.7743 C.3       1 <0>         0.1921
      5 N1         -1.0809   -0.2381    3.6595 N.am      1 <0>        -0.4658
      6 C5         -0.9153   -1.3893    4.3431 C.2       1 <0>         0.6926
      7 O1          0.0814   -2.0870    4.3332 O.2       1 <0>        -0.4998
      8 N2         -2.0415   -1.6336    5.0379 N.am      1 <0>        -0.6783
      9 H1         -2.1883   -2.3994    5.6148 H         1 <0>         0.4552
     10 C6         -2.9321   -0.6516    4.8094 C.2       1 <0>         0.6421
     11 O2         -4.0469   -0.5787    5.2892 O.2       1 <0>        -0.4589
     12 O3         -2.3816    0.2374    3.9685 O.3       1 <0>        -0.0985
     13 C7         -0.2860   -0.4682   -0.9436 C.ar      1 <0>        -0.0183
     14 C8          0.8411   -1.1524   -1.4015 C.ar      1 <0>        -0.1412
     15 C9          0.7851   -1.8578   -2.5861 C.ar      1 <0>        -0.0750
     16 C10        -0.3848   -1.8890   -3.3224 C.ar      1 <0>        -0.2052
     17 C11        -1.5107   -1.2116   -2.8748 C.ar      1 <0>         0.1337
     18 C12        -1.4668   -0.5053   -1.6842 C.ar      1 <0>        -0.1348
     19 O4         -2.6578   -1.2453   -3.6027 O.3       1 <0>        -0.3072
     20 C13        -2.6334   -1.9970   -4.8177 C.3       1 <0>         0.1460
     21 C14        -3.9832   -1.9199   -5.4834 C.2       1 <0>         0.0027
     22 C15        -4.9899   -2.8269   -5.3636 C.2       1 <0>         0.0422
     23 O5         -6.0172   -2.3785   -6.1187 O.3       1 <0>        -0.1798
     24 C16        -5.6328   -1.2200   -6.6829 C.2       1 <0>         0.2291
     25 N3         -4.4089   -0.9446   -6.2935 N.2       1 <0>        -0.4399
     26 C17        -6.4544   -0.3901   -7.5876 C.ar      1 <0>         0.0151
     27 C18        -7.7516   -0.7868   -7.9187 C.ar      1 <0>        -0.0900
     28 C19        -8.5134   -0.0069   -8.7637 C.ar      1 <0>        -0.0684
     29 C20        -7.9948    1.1660   -9.2833 C.ar      1 <0>        -0.1654
     30 C21        -6.7102    1.5651   -8.9594 C.ar      1 <0>        -0.0685
     31 C22        -5.9394    0.7976   -8.1109 C.ar      1 <0>        -0.0707
     32 C23        -8.8328    2.0124  -10.2066 C.3       1 <0>         0.5081
     33 F1         -9.5611    2.9410   -9.4554 F         1 <0>        -0.1730
     34 F2         -7.9995    2.6891  -11.1037 F         1 <0>        -0.1739
     35 F3         -9.7157    1.1927  -10.9178 F         1 <0>        -0.1744
     36 C24        -4.9647   -4.0670   -4.5613 C.ar      1 <0>        -0.0363
     37 C25        -4.5130   -4.0386   -3.2404 C.ar      1 <0>        -0.0840
     38 C26        -4.4921   -5.2003   -2.4969 C.ar      1 <0>        -0.1167
     39 C27        -4.9170   -6.3919   -3.0574 C.ar      1 <0>        -0.0977
     40 C28        -5.3655   -6.4272   -4.3659 C.ar      1 <0>        -0.1187
     41 C29        -5.3980   -5.2717   -5.1186 C.ar      1 <0>        -0.0874
     42 H2          0.4668    2.2454    0.8130 H         1 <0>         0.0786
     43 H3         -0.4443    2.1403   -0.7125 H         1 <0>         0.0727
     44 H4         -1.3030    2.0580    0.8444 H         1 <0>         0.0778
     45 H5          0.1614   -1.4131    1.4691 H         1 <0>         0.1260
     46 H6          0.8772    0.3910    3.2485 H         1 <0>         0.1208
     47 H7         -0.4053    1.4312    2.5843 H         1 <0>         0.1166
     48 H8          1.7567   -1.1295   -0.8292 H         1 <0>         0.1277
     49 H9          1.6579   -2.3868   -2.9394 H         1 <0>         0.1292
     50 H10        -0.4227   -2.4421   -4.2493 H         1 <0>         0.1286
     51 H11        -2.3432    0.0188   -1.3327 H         1 <0>         0.1320
     52 H12        -1.8755   -1.5855   -5.4844 H         1 <0>         0.0865
     53 H13        -2.3962   -3.0376   -4.5965 H         1 <0>         0.0847
     54 H14        -8.1573   -1.7024   -7.5144 H         1 <0>         0.1446
     55 H15        -9.5169   -0.3126   -9.0206 H         1 <0>         0.1468
     56 H16        -6.3113    2.4815   -9.3687 H         1 <0>         0.1483
     57 H17        -4.9384    1.1125   -7.8554 H         1 <0>         0.1525
     58 H18        -4.1803   -3.1093   -2.8020 H         1 <0>         0.1335
     59 H19        -4.1429   -5.1798   -1.4751 H         1 <0>         0.1323
     60 H20        -4.8982   -7.2986   -2.4709 H         1 <0>         0.1303
     61 H21        -5.6951   -7.3608   -4.7974 H         1 <0>         0.1321
     62 H22        -5.7528   -5.2998   -6.1383 H         1 <0>         0.1285
@<TRIPOS>BOND
     1    1    2 1
     2    1   42 1
     3    1   43 1
     4    1   44 1
     5    2    3 2
     6    2   13 1
     7    3    4 1
     8    3   45 1
     9    4    5 1
    10    4   46 1
    11    4   47 1
    12    5   12 1
    13    5    6 am
    14    6    7 2
    15    6    8 am
    16    8    9 1
    17    8   10 am
    18   10   11 2
    19   10   12 1
    20   13   18 ar
    21   13   14 ar
    22   14   15 ar
    23   14   48 1
    24   15   16 ar
    25   15   49 1
    26   16   17 ar
    27   16   50 1
    28   17   18 ar
    29   17   19 1
    30   18   51 1
    31   19   20 1
    32   20   21 1
    33   20   52 1
    34   20   53 1
    35   21   25 1
    36   21   22 2
    37   22   23 1
    38   22   36 1
    39   23   24 1
    40   24   25 2
    41   24   26 1
    42   26   31 ar
    43   26   27 ar
    44   27   28 ar
    45   27   54 1
    46   28   29 ar
    47   28   55 1
    48   29   30 ar
    49   29   32 1
    50   30   31 ar
    51   30   56 1
    52   31   57 1
    53   32   33 1
    54   32   34 1
    55   32   35 1
    56   36   41 ar
    57   36   37 ar
    58   37   38 ar
    59   37   58 1
    60   38   39 ar
    61   38   59 1
    62   39   40 ar
    63   39   60 1
    64   40   41 ar
    65   40   61 1
    66   41   62 1
@<TRIPOS>MOLECULE
CHEMBL284664
   48    51     0     0     0
SMALL
USER_CHARGES

@<TRIPOS>ATOM
      1 C1         -0.0187    1.5258    0.0104 C.3       1 <0>        -0.1535
      2 C2          0.0021   -0.0041    0.0020 C.3       1 <0>        -0.1241
      3 C3          0.7182   -0.4975   -1.2568 C.3       1 <0>        -0.1185
      4 C4          0.7390   -2.0273   -1.2652 C.3       1 <0>        -0.0406
      5 C5          1.4443   -2.5133   -2.5051 C.2       1 <0>        -0.1017
      6 C6          2.7617   -2.7792   -2.6702 C.2       1 <0>        -0.0783
      7 C7          3.2288   -3.2460   -3.9752 C.ar      1 <0>        -0.0721
      8 C8          4.5427   -3.5806   -4.3738 C.ar      1 <0>        -0.0750
      9 C9          4.7996   -4.0008   -5.6416 C.ar      1 <0>        -0.1202
     10 C10         3.7884   -4.1166   -6.5856 C.ar      1 <0>        -0.0963
     11 C11         2.4915   -3.7994   -6.2343 C.ar      1 <0>        -0.0773
     12 C12         2.2200   -3.3719   -4.9514 C.ar      1 <0>        -0.1150
     13 S1          0.7420   -2.8824   -4.1009 S.3       1 <0>         0.0352
     14 C13         3.7129   -2.6000   -1.5492 C.ar      1 <0>        -0.0269
     15 C14         3.9438   -1.3268   -1.0265 C.ar      1 <0>        -0.1003
     16 C15         4.8280   -1.1607    0.0161 C.ar      1 <0>        -0.1077
     17 C16         5.4931   -2.2647    0.5494 C.ar      1 <0>        -0.0411
     18 C17         5.2629   -3.5374    0.0270 C.ar      1 <0>        -0.1080
     19 C18         4.3742   -3.7052   -1.0116 C.ar      1 <0>        -0.1001
     20 C19         6.4454   -2.0853    1.6717 C.ar      1 <0>        -0.0551
     21 C20         6.6728   -0.8147    2.1987 C.ar      1 <0>        -0.0933
     22 C21         7.5591   -0.6512    3.2424 C.ar      1 <0>        -0.1421
     23 C22         8.2247   -1.7502    3.7685 C.ar      1 <0>         0.1070
     24 C23         8.0009   -3.0167    3.2457 C.ar      1 <0>        -0.1421
     25 C24         7.1111   -3.1877    2.2061 C.ar      1 <0>        -0.0935
     26 O1          9.0974   -1.5858    4.7969 O.3       1 <0>        -0.4995
     27 H1          1.0039    1.9031    0.0027 H         1 <0>         0.0539
     28 H2         -0.5459    1.8868   -0.8726 H         1 <0>         0.0544
     29 H3         -0.5289    1.8773    0.9072 H         1 <0>         0.0553
     30 H4          0.5293   -0.3651    0.8851 H         1 <0>         0.0636
     31 H5         -1.0205   -0.3814    0.0098 H         1 <0>         0.0633
     32 H6          0.1910   -0.1364   -2.1398 H         1 <0>         0.0670
     33 H7          1.7408   -0.1202   -1.2645 H         1 <0>         0.0693
     34 H8          1.2661   -2.3884   -0.3821 H         1 <0>         0.0888
     35 H9         -0.2836   -2.4046   -1.2575 H         1 <0>         0.0826
     36 H10         5.3524   -3.5015   -3.6635 H         1 <0>         0.1237
     37 H11         5.8130   -4.2495   -5.9202 H         1 <0>         0.1277
     38 H12         4.0146   -4.4519   -7.5870 H         1 <0>         0.1349
     39 H13         1.6953   -3.8851   -6.9589 H         1 <0>         0.1318
     40 H14         3.4295   -0.4719   -1.4398 H         1 <0>         0.1274
     41 H15         5.0068   -0.1754    0.4207 H         1 <0>         0.1276
     42 H16         5.7786   -4.3919    0.4397 H         1 <0>         0.1276
     43 H17         4.1925   -4.6912   -1.4129 H         1 <0>         0.1246
     44 H18         6.1556    0.0406    1.7897 H         1 <0>         0.1306
     45 H19         7.7359    0.3328    3.6508 H         1 <0>         0.1316
     46 H20         8.5204   -3.8696    3.6568 H         1 <0>         0.1315
     47 H21         6.9335   -4.1739    1.8032 H         1 <0>         0.1306
     48 H22         8.6926   -1.6600    5.6720 H         1 <0>         0.3924
@<TRIPOS>BOND
     1    1    2 1
     2    1   27 1
     3    1   28 1
     4    1   29 1
     5    2    3 1
     6    2   30 1
     7    2   31 1
     8    3    4 1
     9    3   32 1
    10    3   33 1
    11    4    5 1
    12    4   34 1
    13    4   35 1
    14    5   13 1
    15    5    6 2
    16    6    7 1
    17    6   14 1
    18    7   12 ar
    19    7    8 ar
    20    8    9 ar
    21    8   36 1
    22    9   10 ar
    23    9   37 1
    24   10   11 ar
    25   10   38 1
    26   11   12 ar
    27   11   39 1
    28   12   13 1
    29   14   19 ar
    30   14   15 ar
    31   15   16 ar
    32   15   40 1
    33   16   17 ar
    34   16   41 1
    35   17   18 ar
    36   17   20 1
    37   18   19 ar
    38   18   42 1
    39   19   43 1
    40   20   25 ar
    41   20   21 ar
    42   21   22 ar
    43   21   44 1
    44   22   23 ar
    45   22   45 1
    46   23   24 ar
    47   23   26 1
    48   24   25 ar
    49   24   46 1
    50   25   47 1
    51   26   48 1
@<TRIPOS>MOLECULE
CHEMBL416145
   63    67     0     0     0
SMALL
USER_CHARGES

@<TRIPOS>ATOM
      1 C1         -0.0563    1.4137    2.6249 C.ar      1 <0>        -0.1258
      2 C2          1.0950    2.1551    2.8218 C.ar      1 <0>        -0.1205
      3 C3          2.3269    1.6175    2.5105 C.ar      1 <0>        -0.1110
      4 C4          2.4101    0.3229    1.9966 C.ar      1 <0>        -0.0459
      5 C5          1.2451   -0.4197    1.8007 C.ar      1 <0>        -0.1127
      6 C6          0.0193    0.1297    2.1156 C.ar      1 <0>        -0.1172
      7 C7          3.7266   -0.2591    1.6605 C.2       1 <0>        -0.1201
      8 C8          3.8023   -1.4893    1.1723 C.2       1 <0>        -0.1336
      9 C9          5.1445   -2.0827    0.8297 C.3       1 <0>        -0.1025
     10 C10         5.3355   -3.3908    1.5999 C.3       1 <0>         0.2465
     11 C11         6.7510   -3.9206    1.3623 C.3       1 <0>        -0.0787
     12 C12         6.9662   -5.1650    2.1846 C.ar      1 <0>        -0.1104
     13 C13         7.3243   -5.0606    3.5157 C.ar      1 <0>        -0.1163
     14 C14         7.5217   -6.2021    4.2699 C.ar      1 <0>        -0.0711
     15 C15         7.3606   -7.4480    3.6932 C.ar      1 <0>        -0.0908
     16 C16         7.0017   -7.5524    2.3624 C.ar      1 <0>        -0.0867
     17 C17         6.8001   -6.4109    1.6092 C.ar      1 <0>        -0.1118
     18 C18         7.5768   -8.6924    4.5152 C.3       1 <0>        -0.2336
     19 F1          7.1660   -8.4588    5.8320 F         1 <0>        -0.2116
     20 F2          6.8305   -9.7445    3.9736 F         1 <0>        -0.2122
     21 P1          9.3461   -9.1314    4.4995 P.3       1 <0>         2.1361
     22 O1          9.7756   -9.5165    3.0429 O.2       1 <0>        -1.1348
     23 O2         10.1924   -7.9064    4.9869 O.3       1 <0>        -1.1331
     24 O3          9.5907  -10.3485    5.4551 O.3       1 <0>        -1.1400
     25 C19         4.3316   -4.4072    1.1203 C.ar      1 <0>        -0.0935
     26 C20         3.5774   -4.1537   -0.0101 C.ar      1 <0>        -0.1113
     27 C21         2.6565   -5.0861   -0.4500 C.ar      1 <0>        -0.1346
     28 C22         2.4901   -6.2722    0.2402 C.ar      1 <0>        -0.1084
     29 C23         3.2450   -6.5261    1.3701 C.ar      1 <0>        -0.1206
     30 C24         4.1689   -5.5956    1.8076 C.ar      1 <0>        -0.0544
     31 N1          5.1388   -3.1479    3.0312 N.pl3     1 <0>        -0.3647
     32 C25         5.8534   -2.2820    3.8244 C.ar      1 <0>         0.0991
     33 C26         6.9120   -1.4099    3.5936 C.ar      1 <0>        -0.1241
     34 C27         7.4145   -0.6641    4.6227 C.ar      1 <0>        -0.0721
     35 C28         6.8776   -0.7691    5.8995 C.ar      1 <0>        -0.1401
     36 C29         5.8392   -1.6169    6.1519 C.ar      1 <0>        -0.0349
     37 C30         5.3053   -2.3925    5.1141 C.ar      1 <0>        -0.0152
     38 N2          4.3064   -3.2958    5.0582 N.2       1 <0>        -0.2293
     39 N3          4.1802   -3.7487    3.8607 N.2       1 <0>         0.0107
     40 H1         -1.0179    1.8376    2.8739 H         1 <0>         0.1189
     41 H2          1.0292    3.1570    3.2197 H         1 <0>         0.1205
     42 H3          3.2249    2.1975    2.6641 H         1 <0>         0.1220
     43 H4          1.3028   -1.4221    1.4029 H         1 <0>         0.1229
     44 H5         -0.8832   -0.4440    1.9642 H         1 <0>         0.1209
     45 H6          4.6268    0.3179    1.8126 H         1 <0>         0.1174
     46 H7          2.9021   -2.0662    1.0202 H         1 <0>         0.1216
     47 H8          5.1913   -2.2813   -0.2410 H         1 <0>         0.1051
     48 H9          5.9325   -1.3812    1.1039 H         1 <0>         0.0837
     49 H10         6.8780   -4.1567    0.3058 H         1 <0>         0.0969
     50 H11         7.4768   -3.1618    1.6548 H         1 <0>         0.0832
     51 H12         7.4501   -4.0872    3.9662 H         1 <0>         0.1100
     52 H13         7.8021   -6.1205    5.3097 H         1 <0>         0.1258
     53 H14         6.8762   -8.5259    1.9117 H         1 <0>         0.1264
     54 H15         6.5160   -6.4925    0.5705 H         1 <0>         0.1160
     55 H16         3.7074   -3.2271   -0.5493 H         1 <0>         0.1250
     56 H17         2.0668   -4.8877   -1.3328 H         1 <0>         0.1184
     57 H18         1.7702   -7.0003   -0.1031 H         1 <0>         0.1181
     58 H19         3.1148   -7.4526    1.9095 H         1 <0>         0.1219
     59 H20         4.7613   -5.7955    2.6882 H         1 <0>         0.1327
     60 H21         7.3359   -1.3226    2.6041 H         1 <0>         0.1275
     61 H22         8.2365    0.0126    4.4417 H         1 <0>         0.1327
     62 H23         7.2872   -0.1729    6.7015 H         1 <0>         0.1313
     63 H24         5.4301   -1.6905    7.1487 H         1 <0>         0.1325
@<TRIPOS>BOND
     1    1    6 ar
     2    1    2 ar
     3    1   40 1
     4    2    3 ar
     5    2   41 1
     6    3    4 ar
     7    3   42 1
     8    4    5 ar
     9    4    7 1
    10    5    6 ar
    11    5   43 1
    12    6   44 1
    13    7    8 2
    14    7   45 1
    15    8    9 1
    16    8   46 1
    17    9   10 1
    18    9   47 1
    19    9   48 1
    20   10   11 1
    21   10   25 1
    22   10   31 1
    23   11   12 1
    24   11   49 1
    25   11   50 1
    26   12   17 ar
    27   12   13 ar
    28   13   14 ar
    29   13   51 1
    30   14   15 ar
    31   14   52 1
    32   15   16 ar
    33   15   18 1
    34   16   17 ar
    35   16   53 1
    36   17   54 1
    37   18   19 1
    38   18   20 1
    39   18   21 1
    40   21   22 2
    41   21   23 1
    42   21   24 1
    43   25   30 ar
    44   25   26 ar
    45   26   27 ar
    46   26   55 1
    47   27   28 ar
    48   27   56 1
    49   28   29 ar
    50   28   57 1
    51   29   30 ar
    52   29   58 1
    53   30   59 1
    54   31   39 1
    55   31   32 1
    56   32   37 ar
    57   32   33 ar
    58   33   34 ar
    59   33   60 1
    60   34   35 ar
    61   34   61 1
    62   35   36 ar
    63   35   62 1
    64   36   37 ar
    65   36   63 1
    66   37   38 1
    67   38   39 2
@<TRIPOS>MOLECULE
CHEMBL416145__1
   63    67     0     0     0
SMALL
USER_CHARGES

@<TRIPOS>ATOM
      1 C1          0.2357    1.1500    0.7133 C.ar      1 <0>        -0.1295
      2 C2          1.4265    1.7745    1.0389 C.ar      1 <0>        -0.1201
      3 C3          2.6087    1.0633    1.0234 C.ar      1 <0>        -0.1141
      4 C4          2.6014   -0.2888    0.6788 C.ar      1 <0>        -0.0384
      5 C5          1.3970   -0.9129    0.3519 C.ar      1 <0>        -0.1183
      6 C6          0.2217   -0.1903    0.3708 C.ar      1 <0>        -0.1154
      7 C7          3.8643   -1.0567    0.6597 C.2       1 <0>        -0.1385
      8 C8          3.8422   -2.3635    0.4382 C.2       1 <0>        -0.1160
      9 C9          5.1153   -3.1648    0.5286 C.3       1 <0>        -0.0922
     10 C10         4.9445   -4.2786    1.5634 C.3       1 <0>         0.2473
     11 C11         6.2184   -5.1244    1.6174 C.3       1 <0>        -0.0811
     12 C12         6.5084   -5.6836    0.2484 C.ar      1 <0>        -0.1096
     13 C13         5.8934   -6.8501   -0.1663 C.ar      1 <0>        -0.1104
     14 C14         6.1594   -7.3631   -1.4220 C.ar      1 <0>        -0.0680
     15 C15         7.0401   -6.7093   -2.2634 C.ar      1 <0>        -0.0921
     16 C16         7.6544   -5.5423   -1.8491 C.ar      1 <0>        -0.0848
     17 C17         7.3851   -5.0270   -0.5950 C.ar      1 <0>        -0.1213
     18 C18         7.3309   -7.2691   -3.6320 C.3       1 <0>        -0.2338
     19 F1          6.1755   -7.8672   -4.1463 F         1 <0>        -0.2114
     20 F2          7.7385   -6.2351   -4.4818 F         1 <0>        -0.2122
     21 P1          8.6570   -8.5140   -3.5102 P.3       1 <0>         2.1361
     22 O1          9.9841   -7.8201   -3.0500 O.2       1 <0>        -1.1348
     23 O2          8.2510   -9.6091   -2.4660 O.3       1 <0>        -1.1332
     24 O3          8.8757   -9.1828   -4.9100 O.3       1 <0>        -1.1399
     25 C19         4.6875   -3.6706    2.9182 C.ar      1 <0>        -0.0961
     26 C20         5.6272   -3.8007    3.9237 C.ar      1 <0>        -0.1047
     27 C21         5.3914   -3.2429    5.1663 C.ar      1 <0>        -0.1206
     28 C22         4.2163   -2.5547    5.4034 C.ar      1 <0>        -0.1124
     29 C23         3.2770   -2.4238    4.3976 C.ar      1 <0>        -0.1199
     30 C24         3.5147   -2.9779    3.1536 C.ar      1 <0>        -0.0843
     31 N1          3.8111   -5.1265    1.1857 N.pl3     1 <0>        -0.3677
     32 C25         3.2653   -6.1480    1.9262 C.ar      1 <0>         0.0971
     33 C26         3.5509   -6.6991    3.1708 C.ar      1 <0>        -0.1145
     34 C27         2.8007   -7.7400    3.6413 C.ar      1 <0>        -0.0750
     35 C28         1.7538   -8.2543    2.8869 C.ar      1 <0>        -0.1385
     36 C29         1.4533   -7.7315    1.6633 C.ar      1 <0>        -0.0372
     37 C30         2.2069   -6.6635    1.1581 C.ar      1 <0>        -0.0173
     38 N2          2.1505   -5.9562    0.0120 N.2       1 <0>        -0.2265
     39 N3          3.0653   -5.0517   -0.0001 N.2       1 <0>         0.0053
     40 H1         -0.6875    1.7101    0.7309 H         1 <0>         0.1177
     41 H2          1.4307    2.8211    1.3054 H         1 <0>         0.1191
     42 H3          3.5377    1.5521    1.2771 H         1 <0>         0.1214
     43 H4          1.3848   -1.9591    0.0840 H         1 <0>         0.1230
     44 H5         -0.7111   -0.6721    0.1177 H         1 <0>         0.1203
     45 H6          4.8051   -0.5531    0.8262 H         1 <0>         0.1180
     46 H7          2.9118   -2.8540    0.1929 H         1 <0>         0.1244
     47 H8          5.3384   -3.6035   -0.4440 H         1 <0>         0.1082
     48 H9          5.9348   -2.5120    0.8292 H         1 <0>         0.0926
     49 H10         7.0536   -4.5030    1.9405 H         1 <0>         0.0981
     50 H11         6.0809   -5.9438    2.3229 H         1 <0>         0.0830
     51 H12         5.2054   -7.3609    0.4911 H         1 <0>         0.1056
     52 H13         5.6795   -8.2749   -1.7457 H         1 <0>         0.1264
     53 H14         8.3427   -5.0317   -2.5063 H         1 <0>         0.1272
     54 H15         7.8622   -4.1132   -0.2727 H         1 <0>         0.1177
     55 H16         6.5453   -4.3384    3.7385 H         1 <0>         0.1335
     56 H17         6.1252   -3.3452    5.9521 H         1 <0>         0.1243
     57 H18         4.0318   -2.1195    6.3744 H         1 <0>         0.1195
     58 H19         2.3587   -1.8864    4.5829 H         1 <0>         0.1184
     59 H20         2.7825   -2.8725    2.3667 H         1 <0>         0.1211
     60 H21         4.3635   -6.3058    3.7636 H         1 <0>         0.1274
     61 H22         3.0239   -8.1667    4.6080 H         1 <0>         0.1320
     62 H23         1.1714   -9.0776    3.2734 H         1 <0>         0.1315
     63 H24         0.6372   -8.1397    1.0855 H         1 <0>         0.1336
@<TRIPOS>BOND
     1    1    6 ar
     2    1    2 ar
     3    1   40 1
     4    2    3 ar
     5    2   41 1
     6    3    4 ar
     7    3   42 1
     8    4    5 ar
     9    4    7 1
    10    5    6 ar
    11    5   43 1
    12    6   44 1
    13    7    8 2
    14    7   45 1
    15    8    9 1
    16    8   46 1
    17    9   10 1
    18    9   47 1
    19    9   48 1
    20   10   11 1
    21   10   25 1
    22   10   31 1
    23   11   12 1
    24   11   49 1
    25   11   50 1
    26   12   17 ar
    27   12   13 ar
    28   13   14 ar
    29   13   51 1
    30   14   15 ar
    31   14   52 1
    32   15   16 ar
    33   15   18 1
    34   16   17 ar
    35   16   53 1
    36   17   54 1
    37   18   19 1
    38   18   20 1
    39   18   21 1
    40   21   22 2
    41   21   23 1
    42   21   24 1
    43   25   30 ar
    44   25   26 ar
    45   26   27 ar
    46   26   55 1
    47   27   28 ar
    48   27   56 1
    49   28   29 ar
    50   28   57 1
    51   29   30 ar
    52   29   58 1
    53   30   59 1
    54   31   39 1
    55   31   32 1
    56   32   37 ar
    57   32   33 ar
    58   33   34 ar
    59   33   60 1
    60   34   35 ar
    61   34   61 1
    62   35   36 ar
    63   35   62 1
    64   36   37 ar
    65   36   63 1
    66   37   38 1
    67   38   39 2
@<TRIPOS>MOLECULE
CHEMBL372973
   55    57     0     0     0
SMALL
USER_CHARGES

@<TRIPOS>ATOM
      1 C1         -0.7271    0.6334   -0.3784 C.ar      1 <0>        -0.1191
      2 C2          0.3205    1.4946   -0.6461 C.ar      1 <0>        -0.1166
      3 C3          1.6221    1.0301   -0.6161 C.ar      1 <0>        -0.1114
      4 C4          1.8762   -0.2955   -0.3179 C.ar      1 <0>        -0.1038
      5 C5          0.8287   -1.1566   -0.0492 C.ar      1 <0>        -0.1002
      6 C6         -0.4730   -0.6924   -0.0807 C.ar      1 <0>        -0.1214
      7 C7          3.2951   -0.8021   -0.2861 C.3       1 <0>         0.1516
      8 N1          3.8001   -0.7544    1.0883 N.pl3     1 <0>        -0.9829
      9 C8          3.5297   -1.8631    2.0069 C.3       1 <0>         0.1736
     10 C9          4.5682   -2.9382    1.8161 C.ar      1 <0>        -0.1311
     11 C10         4.3574   -3.9473    0.8951 C.ar      1 <0>        -0.1112
     12 C11         5.3100   -4.9335    0.7201 C.ar      1 <0>        -0.0895
     13 C12         6.4738   -4.9105    1.4658 C.ar      1 <0>        -0.0953
     14 C13         6.6851   -3.9009    2.3862 C.ar      1 <0>        -0.0856
     15 C14         5.7343   -2.9123    2.5581 C.ar      1 <0>        -0.1042
     16 C15         7.5119   -5.9862    1.2757 C.3       1 <0>        -0.2349
     17 F1          7.4021   -6.5177   -0.0137 F         1 <0>        -0.2141
     18 F2          8.7878   -5.4385    1.4472 F         1 <0>        -0.2124
     19 P1          7.2484   -7.3086    2.5025 P.3       1 <0>         2.1396
     20 O1          7.5093   -6.7459    3.9412 O.2       1 <0>        -1.1343
     21 O2          5.7729   -7.8260    2.4038 O.3       1 <0>        -1.1350
     22 O3          8.2364   -8.4904    2.2169 O.3       1 <0>        -1.1433
     23 S1          4.6765    0.5528    1.6035 S.o2      1 <0>         2.6888
     24 O4          5.5347    0.0854    2.6350 O.2       1 <0>        -0.9467
     25 O5          5.1687    1.1972    0.4365 O.2       1 <0>        -0.9683
     26 C16         3.5456    1.6734    2.3584 C.ar      1 <0>        -0.7233
     27 C17         3.0049    2.7101    1.6204 C.ar      1 <0>         0.0191
     28 C18         2.1184    3.5903    2.2102 C.ar      1 <0>        -0.1793
     29 C19         1.7704    3.4331    3.5439 C.ar      1 <0>         0.1909
     30 C20         2.3141    2.3919    4.2821 C.ar      1 <0>        -0.2362
     31 C21         3.1961    1.5113    3.6863 C.ar      1 <0>         0.0244
     32 O6          0.8989    4.2980    4.1265 O.3       1 <0>        -0.2763
     33 C22         0.5864    4.0753    5.5030 C.3       1 <0>        -0.0118
     34 C23        -0.3877    5.1246    5.9731 C.2       1 <0>         0.5037
     35 O7         -0.7782    5.9835    5.2008 O.co2     1 <0>        -0.6730
     36 O8         -0.7854    5.1147    7.1256 O.co2     1 <0>        -0.6870
     37 H1         -1.7437    0.9973   -0.3975 H         1 <0>         0.1171
     38 H2          0.1220    2.5303   -0.8792 H         1 <0>         0.1199
     39 H3          2.4405    1.7029   -0.8260 H         1 <0>         0.1225
     40 H4          1.0272   -2.1924    0.1834 H         1 <0>         0.1250
     41 H5         -1.2914   -1.3653    0.1289 H         1 <0>         0.1193
     42 H6          3.3221   -1.8301   -0.6476 H         1 <0>         0.0976
     43 H7          3.9188   -0.1761   -0.9243 H         1 <0>         0.0997
     44 H8          3.5662   -1.5008    3.0343 H         1 <0>         0.0875
     45 H9          2.5407   -2.2726    1.8010 H         1 <0>         0.0879
     46 H10         3.4482   -3.9653    0.3125 H         1 <0>         0.1154
     47 H11         5.1450   -5.7222    0.0010 H         1 <0>         0.1235
     48 H12         7.5941   -3.8831    2.9690 H         1 <0>         0.1298
     49 H13         5.9010   -2.1215    3.2745 H         1 <0>         0.1364
     50 H14         3.2760    2.8320    0.5822 H         1 <0>         0.1372
     51 H15         1.6968    4.4003    1.6335 H         1 <0>         0.1353
     52 H16         2.0448    2.2675    5.3206 H         1 <0>         0.1363
     53 H17         3.6162    0.6979    4.2594 H         1 <0>         0.1380
     54 H18         0.1406    3.0875    5.6192 H         1 <0>         0.0643
     55 H19         1.4986    4.1344    6.0968 H         1 <0>         0.0638
@<TRIPOS>BOND
     1    1    6 ar
     2    1    2 ar
     3    1   37 1
     4    2    3 ar
     5    2   38 1
     6    3    4 ar
     7    3   39 1
     8    4    5 ar
     9    4    7 1
    10    5    6 ar
    11    5   40 1
    12    6   41 1
    13    7    8 1
    14    7   42 1
    15    7   43 1
    16    8    9 1
    17    8   23 1
    18    9   10 1
    19    9   44 1
    20    9   45 1
    21   10   15 ar
    22   10   11 ar
    23   11   12 ar
    24   11   46 1
    25   12   13 ar
    26   12   47 1
    27   13   14 ar
    28   13   16 1
    29   14   15 ar
    30   14   48 1
    31   15   49 1
    32   16   17 1
    33   16   18 1
    34   16   19 1
    35   19   20 2
    36   19   21 1
    37   19   22 1
    38   23   24 2
    39   23   25 2
    40   23   26 1
    41   26   31 ar
    42   26   27 ar
    43   27   28 ar
    44   27   50 1
    45   28   29 ar
    46   28   51 1
    47   29   30 ar
    48   29   32 1
    49   30   31 ar
    50   30   52 1
    51   31   53 1
    52   32   33 1
    53   33   34 1
    54   33   54 1
    55   33   55 1
    56   34   35 2
    57   34   36 1
@<TRIPOS>MOLECULE
CHEMBL243942
   57    59     0     0     0
SMALL
USER_CHARGES

@<TRIPOS>ATOM
      1 C1          0.0247    1.1351    0.1749 C.3       1 <0>        -0.1472
      2 C2          0.2210   -0.3825    0.2338 C.3       1 <0>        -0.0513
      3 C3          0.8128   -0.8830   -1.0789 C.3       1 <0>        -0.1159
      4 C4          2.2801   -0.4784   -1.2015 C.3       1 <0>         0.1592
      5 C5          3.0655   -1.1183   -0.0589 C.3       1 <0>        -0.1229
      6 C6          2.5556   -0.6256    1.2907 C.3       1 <0>        -0.0541
      7 C7          1.0533   -0.7795    1.4388 C.3       1 <0>        -0.0936
      8 C8          2.9860    0.8269    1.5145 C.3       1 <0>        -0.1460
      9 C9          3.2322   -1.4792    2.3862 C.3       1 <0>        -0.1449
     10 N1          2.8085   -0.9686   -2.4815 N.pl3     1 <0>        -0.7491
     11 C10         3.8987   -0.3301   -3.0775 C.ar      1 <0>         0.2168
     12 C11         4.4873    0.7658   -2.4565 C.ar      1 <0>        -0.1984
     13 C12         5.5658    1.4012   -3.0423 C.ar      1 <0>        -0.0758
     14 C13         6.0662    0.9520   -4.2476 C.ar      1 <0>        -0.1555
     15 C14         5.4824   -0.1476   -4.8795 C.ar      1 <0>         0.0589
     16 C15         4.3974   -0.7926   -4.2854 C.ar      1 <0>        -0.1613
     17 C16         6.0156   -0.6301   -6.1706 C.2       1 <0>        -0.1349
     18 C17         5.3270   -0.9531   -7.3276 C.2       1 <0>        -0.1134
     19 C18         6.0359   -1.3847   -8.4193 C.2       1 <0>         0.0991
     20 C19         7.4251   -1.4788   -8.3129 C.2       1 <0>        -0.1413
     21 S1          7.7111   -0.9366   -6.6364 S.3       1 <0>         0.1393
     22 C20         8.3615   -1.8911   -9.2821 C.2       1 <0>         0.4871
     23 O1          7.9477   -2.2588  -10.4944 O.co2     1 <0>        -0.6357
     24 O2          9.6608   -1.9134   -8.9863 O.co2     1 <0>        -0.7110
     25 O3          5.4029   -1.7127   -9.5743 O.3       1 <0>        -0.2668
     26 C21         5.2123   -0.6669  -10.5292 C.3       1 <0>         0.0205
     27 C22         4.4983   -1.2144  -11.7381 C.2       1 <0>         0.5130
     28 O4          4.1820   -2.3912  -11.7782 O.co2     1 <0>        -0.6727
     29 O5          4.2369   -0.4806  -12.6760 O.co2     1 <0>        -0.7088
     30 Br1         3.4434   -0.8024   -7.4008 Br        1 <0>        -0.0364
     31 C23        -1.1772   -1.0207    0.3898 C.3       1 <0>        -0.1456
     32 H1          0.9960    1.6246    0.1040 H         1 <0>         0.0612
     33 H2         -0.5753    1.3902   -0.6987 H         1 <0>         0.0550
     34 H3         -0.4863    1.4707    1.0772 H         1 <0>         0.0528
     35 H4          0.7339   -1.9724   -1.1217 H         1 <0>         0.0658
     36 H5          0.2510   -0.4600   -1.9158 H         1 <0>         0.0690
     37 H6          2.3802    0.6033   -1.1732 H         1 <0>         0.0815
     38 H7          2.9603   -2.2050   -0.1128 H         1 <0>         0.0631
     39 H8          4.1237   -0.8651   -0.1625 H         1 <0>         0.0684
     40 H9          0.7225   -0.1853    2.3064 H         1 <0>         0.0584
     41 H10         0.8311   -1.8303    1.6881 H         1 <0>         0.0574
     42 H11         2.5731    1.4541    0.7244 H         1 <0>         0.0597
     43 H12         2.6173    1.1703    2.4811 H         1 <0>         0.0520
     44 H13         4.0740    0.8902    1.4974 H         1 <0>         0.0557
     45 H14         4.3139   -1.3609    2.3227 H         1 <0>         0.0553
     46 H15         2.8878   -1.1511    3.3669 H         1 <0>         0.0512
     47 H16         2.9723   -2.5279    2.2420 H         1 <0>         0.0523
     48 H17         2.4004   -1.7356   -2.9128 H         1 <0>         0.3977
     49 H18         4.1002    1.1220   -1.5132 H         1 <0>         0.1165
     50 H19         6.0184    2.2525   -2.5555 H         1 <0>         0.1193
     51 H20         6.9091    1.4513   -4.7021 H         1 <0>         0.1219
     52 H21         3.9444   -1.6465   -4.7673 H         1 <0>         0.1262
     53 H22         4.6144    0.1279  -10.0831 H         1 <0>         0.0352
     54 H23         6.1812   -0.2678  -10.8293 H         1 <0>         0.0513
     55 H24        -1.7983   -0.7482   -0.4635 H         1 <0>         0.0553
     56 H25        -1.0785   -2.1053    0.4356 H         1 <0>         0.0533
     57 H26        -1.6414   -0.6591    1.3073 H         1 <0>         0.0527
@<TRIPOS>BOND
     1    1    2 1
     2    1   32 1
     3    1   33 1
     4    1   34 1
     5    2    7 1
     6    2    3 1
     7    2   31 1
     8    3    4 1
     9    3   35 1
    10    3   36 1
    11    4    5 1
    12    4   10 1
    13    4   37 1
    14    5    6 1
    15    5   38 1
    16    5   39 1
    17    6    7 1
    18    6    8 1
    19    6    9 1
    20    7   40 1
    21    7   41 1
    22    8   42 1
    23    8   43 1
    24    8   44 1
    25    9   45 1
    26    9   46 1
    27    9   47 1
    28   10   11 1
    29   10   48 1
    30   11   16 ar
    31   11   12 ar
    32   12   13 ar
    33   12   49 1
    34   13   14 ar
    35   13   50 1
    36   14   15 ar
    37   14   51 1
    38   15   16 ar
    39   15   17 1
    40   16   52 1
    41   17   21 1
    42   17   18 2
    43   18   19 1
    44   18   30 1
    45   19   20 2
    46   19   25 1
    47   20   21 1
    48   20   22 1
    49   22   23 2
    50   22   24 1
    51   25   26 1
    52   26   27 1
    53   26   53 1
    54   26   54 1
    55   27   28 2
    56   27   29 1
    57   31   55 1
    58   31   56 1
    59   31   57 1
@<TRIPOS>MOLECULE
CHEMBL563436
   70    74     0     0     0
SMALL
USER_CHARGES

@<TRIPOS>ATOM
      1 C1         -0.0458    1.3727    0.0596 C.ar      1 <0>        -0.1123
      2 C2          1.1401    2.0829    0.0480 C.ar      1 <0>        -0.1165
      3 C3          2.3479    1.4111    0.0244 C.ar      1 <0>        -0.0972
      4 C4          2.3699    0.0289    0.0130 C.ar      1 <0>        -0.0501
      5 C5          1.1840   -0.6813    0.0255 C.ar      1 <0>        -0.0958
      6 C6         -0.0238   -0.0094    0.0476 C.ar      1 <0>        -0.1154
      7 C7          3.6867   -0.7035   -0.0137 C.3       1 <0>         0.0854
      8 S1          4.9480    0.2806    0.8466 S.3       1 <0>        -0.2038
      9 C8          6.4130   -0.7885    0.8302 C.3       1 <0>        -0.1012
     10 C9          6.1312   -2.0727    1.6019 C.3       1 <0>        -0.1204
     11 C10         5.1923   -2.9825    0.8178 C.3       1 <0>        -0.0664
     12 H1          5.5416   -3.0618   -0.2116 H         1 <0>         0.0901
     13 S2          3.5114   -2.3015    0.8321 S.3       1 <0>        -0.1881
     14 C11         5.1799   -4.3721    1.4581 C.3       1 <0>        -0.0979
     15 C12         4.3372   -5.3203    0.6027 C.3       1 <0>        -0.1215
     16 C13         4.3249   -6.7098    1.2429 C.3       1 <0>        -0.1037
     17 C14         3.4822   -7.6580    0.3875 C.3       1 <0>        -0.1377
     18 C15         3.4700   -9.0267    1.0181 C.2       1 <0>         0.5089
     19 O1          4.0757   -9.2243    2.0502 O.2       1 <0>        -0.5198
     20 N1          2.7861  -10.0311    0.4352 N.am      1 <0>        -0.6726
     21 C16         2.8536  -11.3240    0.9663 C.ar      1 <0>         0.1259
     22 C17         2.9415  -11.5096    2.3400 C.ar      1 <0>        -0.1179
     23 C18         3.0095  -12.7871    2.8558 C.ar      1 <0>        -0.1033
     24 C19         2.9895  -13.8864    2.0109 C.ar      1 <0>        -0.0692
     25 C20         2.8982  -13.7059    0.6461 C.ar      1 <0>        -0.0978
     26 C21         2.8271  -12.4250    0.1234 C.ar      1 <0>        -0.1370
     27 C22         2.8606  -14.8762   -0.3021 C.3       1 <0>         0.0926
     28 O2          3.3003  -16.0624    0.3587 O.3       1 <0>        -0.3436
     29 C23         2.6150  -16.3066    1.5922 C.3       1 <0>         0.0224
     30 H2          1.5396  -16.2201    1.4371 H         1 <0>         0.0543
     31 C24         3.0724  -15.2653    2.6151 C.3       1 <0>        -0.0929
     32 C25         2.9453  -17.6903    2.0896 C.2       1 <0>         0.5061
     33 O3          3.7673  -18.3702    1.4993 O.co2     1 <0>        -0.6729
     34 O4          2.3905  -18.1297    3.0824 O.co2     1 <0>        -0.6911
     35 C26         4.1085   -0.9320   -1.4423 C.ar      1 <0>        -0.0925
     36 C27         3.7152   -2.0803   -2.1039 C.ar      1 <0>        -0.0982
     37 C28         4.1021   -2.2899   -3.4143 C.ar      1 <0>        -0.1202
     38 C29         4.8819   -1.3510   -4.0633 C.ar      1 <0>        -0.1117
     39 C30         5.2744   -0.2023   -3.4021 C.ar      1 <0>        -0.1215
     40 C31         4.8839    0.0093   -2.0930 C.ar      1 <0>        -0.1013
     41 H3         -0.9894    1.8976    0.0825 H         1 <0>         0.1247
     42 H4          1.1229    3.1628    0.0569 H         1 <0>         0.1259
     43 H5          3.2744    1.9660    0.0146 H         1 <0>         0.1294
     44 H6          1.2012   -1.7611    0.0158 H         1 <0>         0.1309
     45 H7         -0.9503   -0.5643    0.0570 H         1 <0>         0.1269
     46 H8          6.6694   -1.0347   -0.2002 H         1 <0>         0.0858
     47 H9          7.2486   -0.2641    1.2936 H         1 <0>         0.1153
     48 H10         7.0702   -2.5961    1.7819 H         1 <0>         0.0867
     49 H11         5.6721   -1.8226    2.5584 H         1 <0>         0.0914
     50 H12         6.1998   -4.7511    1.5234 H         1 <0>         0.0813
     51 H13         4.7515   -4.3075    2.4583 H         1 <0>         0.0766
     52 H14         3.3174   -4.9412    0.5373 H         1 <0>         0.0733
     53 H15         4.7656   -5.3849   -0.3975 H         1 <0>         0.0643
     54 H16         5.3448   -7.0888    1.3082 H         1 <0>         0.0711
     55 H17         3.8965   -6.6452    2.2431 H         1 <0>         0.0720
     56 H18         2.4623   -7.2790    0.3221 H         1 <0>         0.0956
     57 H19         3.9106   -7.7226   -0.6127 H         1 <0>         0.0952
     58 H20         2.2471   -9.8579   -0.3524 H         1 <0>         0.4081
     59 H21         2.9570  -10.6565    3.0021 H         1 <0>         0.1354
     60 H22         3.0792  -12.9319    3.9237 H         1 <0>         0.1261
     61 H23         2.7553  -12.2831   -0.9448 H         1 <0>         0.1231
     62 H24         1.8407  -15.0189   -0.6591 H         1 <0>         0.0568
     63 H25         3.5127  -14.6735   -1.1516 H         1 <0>         0.0966
     64 H26         4.1020  -15.4718    2.9071 H         1 <0>         0.0820
     65 H27         2.4303  -15.3148    3.4946 H         1 <0>         0.0861
     66 H28         3.1059   -2.8139   -1.5968 H         1 <0>         0.1373
     67 H29         3.7954   -3.1874   -3.9309 H         1 <0>         0.1254
     68 H30         5.1848   -1.5151   -5.0869 H         1 <0>         0.1229
     69 H31         5.8840    0.5311   -3.9090 H         1 <0>         0.1242
     70 H32         5.1875    0.9085   -1.5776 H         1 <0>         0.1357
@<TRIPOS>BOND
     1    1    6 ar
     2    1    2 ar
     3    1   41 1
     4    2    3 ar
     5    2   42 1
     6    3    4 ar
     7    3   43 1
     8    4    5 ar
     9    4    7 1
    10    5    6 ar
    11    5   44 1
    12    6   45 1
    13    7   13 1
    14    7    8 1
    15    7   35 1
    16    8    9 1
    17    9   10 1
    18    9   46 1
    19    9   47 1
    20   10   11 1
    21   10   48 1
    22   10   49 1
    23   11   12 1
    24   11   13 1
    25   11   14 1
    26   14   15 1
    27   14   50 1
    28   14   51 1
    29   15   16 1
    30   15   52 1
    31   15   53 1
    32   16   17 1
    33   16   54 1
    34   16   55 1
    35   17   18 1
    36   17   56 1
    37   17   57 1
    38   18   19 2
    39   18   20 am
    40   20   21 1
    41   20   58 1
    42   21   26 ar
    43   21   22 ar
    44   22   23 ar
    45   22   59 1
    46   23   24 ar
    47   23   60 1
    48   24   31 1
    49   24   25 ar
    50   25   26 ar
    51   25   27 1
    52   26   61 1
    53   27   28 1
    54   27   62 1
    55   27   63 1
    56   28   29 1
    57   29   30 1
    58   29   31 1
    59   29   32 1
    60   31   64 1
    61   31   65 1
    62   32   33 2
    63   32   34 1
    64   35   40 ar
    65   35   36 ar
    66   36   37 ar
    67   36   66 1
    68   37   38 ar
    69   37   67 1
    70   38   39 ar
    71   38   68 1
    72   39   40 ar
    73   39   69 1
    74   40   70 1
@<TRIPOS>MOLECULE
CHEMBL286007
   48    51     0     0     0
SMALL
USER_CHARGES

@<TRIPOS>ATOM
      1 C1         -0.0187    1.5258    0.0104 C.3       1 <0>        -0.1538
      2 C2          0.0021   -0.0041    0.0020 C.3       1 <0>        -0.1239
      3 C3          0.7182   -0.4975   -1.2568 C.3       1 <0>        -0.1191
      4 C4          0.7390   -2.0273   -1.2652 C.3       1 <0>        -0.0469
      5 C5          1.4443   -2.5133   -2.5051 C.2       1 <0>         0.0590
      6 C6          2.7720   -2.7590   -2.5980 C.2       1 <0>        -0.1455
      7 C7          3.0029   -3.2112   -3.9823 C.ar      1 <0>        -0.1118
      8 C8          4.1277   -3.6099   -4.6993 C.ar      1 <0>        -0.0712
      9 C9          3.9969   -3.9831   -6.0192 C.ar      1 <0>        -0.1329
     10 C10         2.7520   -3.9620   -6.6310 C.ar      1 <0>        -0.0940
     11 C11         1.6316   -3.5687   -5.9315 C.ar      1 <0>        -0.1060
     12 C12         1.7427   -3.1891   -4.5993 C.ar      1 <0>         0.0514
     13 O1          0.8477   -2.7725   -3.6803 O.3       1 <0>        -0.1876
     14 C13         3.7857   -2.6046   -1.5282 C.ar      1 <0>        -0.0096
     15 C14         4.0649   -1.3403   -1.0087 C.ar      1 <0>        -0.1013
     16 C15         5.0068   -1.1971   -0.0141 C.ar      1 <0>        -0.1078
     17 C16         5.6815   -2.3160    0.4739 C.ar      1 <0>        -0.0416
     18 C17         5.4025   -3.5802   -0.0453 C.ar      1 <0>        -0.1080
     19 C18         4.4569   -3.7245   -1.0362 C.ar      1 <0>        -0.0991
     20 C19         6.6958   -2.1616    1.5444 C.ar      1 <0>        -0.0551
     21 C20         6.9721   -0.8994    2.0681 C.ar      1 <0>        -0.0933
     22 C21         7.9160   -0.7591    3.0636 C.ar      1 <0>        -0.1422
     23 C22         8.5912   -1.8730    3.5440 C.ar      1 <0>         0.1068
     24 C23         8.3184   -3.1313    3.0246 C.ar      1 <0>        -0.1421
     25 C24         7.3711   -3.2791    2.0333 C.ar      1 <0>        -0.0935
     26 O2          9.5214   -1.7314    4.5243 O.3       1 <0>        -0.4995
     27 H1          1.0039    1.9031    0.0027 H         1 <0>         0.0544
     28 H2         -0.5459    1.8868   -0.8726 H         1 <0>         0.0545
     29 H3         -0.5289    1.8773    0.9072 H         1 <0>         0.0561
     30 H4          0.5293   -0.3651    0.8851 H         1 <0>         0.0648
     31 H5         -1.0205   -0.3814    0.0098 H         1 <0>         0.0645
     32 H6          0.1910   -0.1364   -2.1398 H         1 <0>         0.0682
     33 H7          1.7408   -0.1202   -1.2645 H         1 <0>         0.0697
     34 H8          1.2661   -2.3884   -0.3821 H         1 <0>         0.0984
     35 H9         -0.2836   -2.4046   -1.2575 H         1 <0>         0.0875
     36 H10         5.0972   -3.6263   -4.2238 H         1 <0>         0.1265
     37 H11         4.8667   -4.2928   -6.5795 H         1 <0>         0.1308
     38 H12         2.6600   -4.2563   -7.6661 H         1 <0>         0.1362
     39 H13         0.6675   -3.5562   -6.4183 H         1 <0>         0.1326
     40 H14         3.5428   -0.4737   -1.3868 H         1 <0>         0.1261
     41 H15         5.2232   -0.2183    0.3878 H         1 <0>         0.1280
     42 H16         5.9250   -4.4465    0.3327 H         1 <0>         0.1280
     43 H17         4.2377   -4.7039   -1.4351 H         1 <0>         0.1251
     44 H18         6.4477   -0.0324    1.6943 H         1 <0>         0.1307
     45 H19         8.1305    0.2184    3.4697 H         1 <0>         0.1316
     46 H20         8.8453   -3.9959    3.4004 H         1 <0>         0.1316
     47 H21         7.1558   -4.2588    1.6330 H         1 <0>         0.1307
     48 H22         9.1638   -1.8066    5.4196 H         1 <0>         0.3923
@<TRIPOS>BOND
     1    1    2 1
     2    1   27 1
     3    1   28 1
     4    1   29 1
     5    2    3 1
     6    2   30 1
     7    2   31 1
     8    3    4 1
     9    3   32 1
    10    3   33 1
    11    4    5 1
    12    4   34 1
    13    4   35 1
    14    5   13 1
    15    5    6 2
    16    6    7 1
    17    6   14 1
    18    7   12 ar
    19    7    8 ar
    20    8    9 ar
    21    8   36 1
    22    9   10 ar
    23    9   37 1
    24   10   11 ar
    25   10   38 1
    26   11   12 ar
    27   11   39 1
    28   12   13 1
    29   14   19 ar
    30   14   15 ar
    31   15   16 ar
    32   15   40 1
    33   16   17 ar
    34   16   41 1
    35   17   18 ar
    36   17   20 1
    37   18   19 ar
    38   18   42 1
    39   19   43 1
    40   20   25 ar
    41   20   21 ar
    42   21   22 ar
    43   21   44 1
    44   22   23 ar
    45   22   45 1
    46   23   24 ar
    47   23   26 1
    48   24   25 ar
    49   24   46 1
    50   25   47 1
    51   26   48 1
@<TRIPOS>MOLECULE
CHEMBL551842
   60    62     0     0     0
SMALL
USER_CHARGES

@<TRIPOS>ATOM
      1 C1          0.0994    1.4666   -0.3944 C.3       1 <0>        -0.1511
      2 C2          0.0877   -0.0634   -0.3996 C.3       1 <0>        -0.1236
      3 C3         -1.3435   -0.5631   -0.1926 C.3       1 <0>        -0.1170
      4 C4         -1.3552   -2.0931   -0.1978 C.3       1 <0>        -0.1114
      5 C5         -2.7864   -2.5928    0.0092 C.3       1 <0>        -0.0756
      6 C6         -2.7979   -4.0998    0.0041 C.ar      1 <0>        -0.0290
      7 C7         -2.9298   -4.7841   -1.2062 C.ar      1 <0>        -0.1245
      8 C8         -2.9397   -6.1878   -1.2047 C.ar      1 <0>         0.1511
      9 C9         -2.8198   -6.8652   -0.0081 C.ar      1 <0>        -0.1533
     10 C10        -2.6884   -6.1764    1.2007 C.ar      1 <0>         0.0940
     11 C11        -2.6715   -4.7912    1.2038 C.ar      1 <0>         0.0298
     12 O1         -2.5430   -4.0200    2.3097 O.3       1 <0>        -0.2576
     13 C12        -1.6073   -4.2506    3.2535 C.ar      1 <0>         0.1804
     14 C13        -0.5980   -3.3422    3.5260 C.ar      1 <0>        -0.1919
     15 C14         0.3099   -3.6012    4.5440 C.ar      1 <0>         0.1657
     16 C15         0.2113   -4.7633    5.3015 C.ar      1 <0>        -0.1216
     17 C16        -0.7892   -5.6935    5.0285 C.ar      1 <0>        -0.0629
     18 C17        -1.6831   -5.4477    3.9680 C.ar      1 <0>        -0.1910
     19 C18        -2.6612   -6.4611    3.5411 C.2       1 <0>         0.5475
     20 O2         -3.5365   -6.8324    4.2976 O.2       1 <0>        -0.3975
     21 O3         -2.5809   -6.9677    2.3031 O.3       1 <0>        -0.3041
     22 C19        -0.9104   -6.9183    5.8378 C.2       1 <0>         0.3835
     23 O4         -1.7840   -7.7225    5.5933 O.2       1 <0>        -0.4141
     24 C20         0.0516   -7.1716    6.9698 C.3       1 <0>        -0.1611
     25 C21        -0.2915   -8.5023    7.6425 C.3       1 <0>        -0.1141
     26 C22         0.6852   -8.7595    8.7918 C.3       1 <0>        -0.1236
     27 C23         0.3421  -10.0902    9.4645 C.3       1 <0>        -0.1538
     28 O5          1.3028   -2.7125    4.8019 O.3       1 <0>        -0.3044
     29 C24         1.3502   -1.5386    3.9884 C.3       1 <0>         0.0188
     30 O6         -3.0665   -6.8725   -2.3690 O.3       1 <0>        -0.4805
     31 C25        -3.0574   -4.0425   -2.4677 C.2       1 <0>         0.5419
     32 O7         -2.0625   -3.7980   -3.1371 O.co2     1 <0>        -0.6788
     33 O8         -4.1586   -3.6692   -2.8494 O.co2     1 <0>        -0.6727
     34 H1          1.1190    1.8226   -0.5419 H         1 <0>         0.0496
     35 H2         -0.5350    1.8375   -1.1994 H         1 <0>         0.0546
     36 H3         -0.2774    1.8295    0.5618 H         1 <0>         0.0500
     37 H4          0.4646   -0.4264   -1.3558 H         1 <0>         0.0648
     38 H5          0.7221   -0.4343    0.4054 H         1 <0>         0.0542
     39 H6         -1.7203   -0.2002    0.7636 H         1 <0>         0.0558
     40 H7         -1.9779   -0.1922   -0.9976 H         1 <0>         0.0660
     41 H8         -0.9783   -2.4561   -1.1540 H         1 <0>         0.0812
     42 H9         -0.7208   -2.4640    0.6072 H         1 <0>         0.0486
     43 H10        -3.1633   -2.2299    0.9654 H         1 <0>         0.0734
     44 H11        -3.4208   -2.2219   -0.7958 H         1 <0>         0.0883
     45 H12        -2.8279   -7.9451   -0.0059 H         1 <0>         0.1442
     46 H13        -0.5171   -2.4340    2.9472 H         1 <0>         0.1563
     47 H14         0.9120   -4.9452    6.1030 H         1 <0>         0.1545
     48 H15         1.0686   -7.2132    6.5799 H         1 <0>         0.1034
     49 H16        -0.0252   -6.3653    7.6993 H         1 <0>         0.1031
     50 H17        -1.3085   -8.4607    8.0324 H         1 <0>         0.0704
     51 H18        -0.2147   -9.3086    6.9131 H         1 <0>         0.0698
     52 H19         1.7022   -8.8011    8.4019 H         1 <0>         0.0626
     53 H20         0.6084   -7.9532    9.5212 H         1 <0>         0.0625
     54 H21        -0.6750  -10.0486    9.8544 H         1 <0>         0.0545
     55 H22         0.4189  -10.8965    8.7351 H         1 <0>         0.0546
     56 H23         1.0379  -10.2735   10.2833 H         1 <0>         0.0535
     57 H24         1.4773   -1.8250    2.9444 H         1 <0>         0.0641
     58 H25         0.4208   -0.9804    4.1014 H         1 <0>         0.0630
     59 H26         2.1886   -0.9151    4.2988 H         1 <0>         0.1073
     60 H27        -2.2247   -7.0773   -2.7985 H         1 <0>         0.3924
@<TRIPOS>BOND
     1    1    2 1
     2    1   34 1
     3    1   35 1
     4    1   36 1
     5    2    3 1
     6    2   37 1
     7    2   38 1
     8    3    4 1
     9    3   39 1
    10    3   40 1
    11    4    5 1
    12    4   41 1
    13    4   42 1
    14    5    6 1
    15    5   43 1
    16    5   44 1
    17    6   11 ar
    18    6    7 ar
    19    7    8 ar
    20    7   31 1
    21    8    9 ar
    22    8   30 1
    23    9   10 ar
    24    9   45 1
    25   10   21 1
    26   10   11 ar
    27   11   12 1
    28   12   13 1
    29   13   18 ar
    30   13   14 ar
    31   14   15 ar
    32   14   46 1
    33   15   16 ar
    34   15   28 1
    35   16   17 ar
    36   16   47 1
    37   17   18 ar
    38   17   22 1
    39   18   19 1
    40   19   20 2
    41   19   21 1
    42   22   23 2
    43   22   24 1
    44   24   25 1
    45   24   48 1
    46   24   49 1
    47   25   26 1
    48   25   50 1
    49   25   51 1
    50   26   27 1
    51   26   52 1
    52   26   53 1
    53   27   54 1
    54   27   55 1
    55   27   56 1
    56   28   29 1
    57   29   57 1
    58   29   58 1
    59   29   59 1
    60   30   60 1
    61   31   32 2
    62   31   33 1
@<TRIPOS>MOLECULE
CHEMBL410646
   49    52     0     0     0
SMALL
USER_CHARGES

@<TRIPOS>ATOM
      1 C1          0.0862    1.0067   -0.1745 C.3       1 <0>        -0.1663
      2 C2          0.2583   -0.5134   -0.1488 C.3       1 <0>         0.2354
      3 C3          1.0289   -0.9183    1.1094 C.3       1 <0>        -0.0595
      4 C4          2.4141   -0.3267    1.0621 C.ar      1 <0>        -0.1028
      5 C5          3.4534   -1.0444    0.5003 C.ar      1 <0>        -0.1071
      6 C6          4.7241   -0.5017    0.4569 C.ar      1 <0>        -0.0721
      7 C7          4.9553    0.7588    0.9751 C.ar      1 <0>        -0.0938
      8 C8          3.9159    1.4769    1.5361 C.ar      1 <0>        -0.0866
      9 C9          2.6443    0.9360    1.5756 C.ar      1 <0>        -0.1223
     10 C10         6.3408    1.3500    0.9287 C.3       1 <0>        -0.2341
     11 F1          6.9891    0.9279   -0.2369 F         1 <0>        -0.2122
     12 F2          6.2524    2.7462    0.9337 F         1 <0>        -0.2125
     13 P1          7.2870    0.7958    2.3850 P.3       1 <0>         2.1345
     14 O1          6.6340    1.3781    3.6846 O.2       1 <0>        -1.1342
     15 O2          7.2750   -0.7695    2.4509 O.3       1 <0>        -1.1326
     16 O3          8.7651    1.3024    2.2712 O.3       1 <0>        -1.1398
     17 C11         1.0240   -0.9530   -1.3701 C.ar      1 <0>        -0.0885
     18 C12         1.5645   -0.0096   -2.2237 C.ar      1 <0>        -0.0972
     19 C13         2.2669   -0.4128   -3.3439 C.ar      1 <0>        -0.1152
     20 C14         2.4291   -1.7595   -3.6103 C.ar      1 <0>        -0.1092
     21 C15         1.8894   -2.7030   -2.7563 C.ar      1 <0>        -0.1178
     22 C16         1.1907   -2.2997   -1.6337 C.ar      1 <0>        -0.0967
     23 N1         -1.0593   -1.1539   -0.1418 N.pl3     1 <0>        -0.3713
     24 C17        -2.0066   -1.0976   -1.1362 C.ar      1 <0>         0.0954
     25 C18        -2.0650   -0.4812   -2.3816 C.ar      1 <0>        -0.1107
     26 C19        -3.1822   -0.6199   -3.1565 C.ar      1 <0>        -0.0780
     27 C20        -4.2622   -1.3715   -2.7114 C.ar      1 <0>        -0.1385
     28 C21        -4.2299   -1.9860   -1.4940 C.ar      1 <0>        -0.0405
     29 C22        -3.0960   -1.8600   -0.6802 C.ar      1 <0>        -0.0213
     30 N2         -2.7790   -2.3377    0.5397 N.2       1 <0>        -0.2319
     31 N3         -1.5999   -1.9505    0.8786 N.2       1 <0>         0.0004
     32 H1          1.0665    1.4832   -0.1798 H         1 <0>         0.0993
     33 H2         -0.4628    1.2951   -1.0709 H         1 <0>         0.0643
     34 H3         -0.4676    1.3246    0.7088 H         1 <0>         0.0707
     35 H4          0.5055   -0.5479    1.9909 H         1 <0>         0.0870
     36 H5          1.0994   -2.0049    1.1584 H         1 <0>         0.0834
     37 H6          3.2727   -2.0292    0.0955 H         1 <0>         0.1139
     38 H7          5.5362   -1.0628    0.0186 H         1 <0>         0.1272
     39 H8          4.0966    2.4616    1.9412 H         1 <0>         0.1268
     40 H9          1.8315    1.4985    2.0106 H         1 <0>         0.1171
     41 H10         1.4377    1.0426   -2.0155 H         1 <0>         0.1273
     42 H11         2.6886    0.3243   -4.0112 H         1 <0>         0.1234
     43 H12         2.9773   -2.0745   -4.4859 H         1 <0>         0.1217
     44 H13         2.0159   -3.7551   -2.9646 H         1 <0>         0.1218
     45 H14         0.7722   -3.0368   -0.9644 H         1 <0>         0.1153
     46 H15        -1.2301    0.1056   -2.7351 H         1 <0>         0.1300
     47 H16        -3.2258   -0.1405   -4.1233 H         1 <0>         0.1326
     48 H17        -5.1376   -1.4702   -3.3362 H         1 <0>         0.1316
     49 H18        -5.0757   -2.5676   -1.1582 H         1 <0>         0.1335
@<TRIPOS>BOND
     1    1    2 1
     2    1   32 1
     3    1   33 1
     4    1   34 1
     5    2    3 1
     6    2   17 1
     7    2   23 1
     8    3    4 1
     9    3   35 1
    10    3   36 1
    11    4    9 ar
    12    4    5 ar
    13    5    6 ar
    14    5   37 1
    15    6    7 ar
    16    6   38 1
    17    7    8 ar
    18    7   10 1
    19    8    9 ar
    20    8   39 1
    21    9   40 1
    22   10   11 1
    23   10   12 1
    24   10   13 1
    25   13   14 2
    26   13   15 1
    27   13   16 1
    28   17   22 ar
    29   17   18 ar
    30   18   19 ar
    31   18   41 1
    32   19   20 ar
    33   19   42 1
    34   20   21 ar
    35   20   43 1
    36   21   22 ar
    37   21   44 1
    38   22   45 1
    39   23   31 1
    40   23   24 1
    41   24   29 ar
    42   24   25 ar
    43   25   26 ar
    44   25   46 1
    45   26   27 ar
    46   26   47 1
    47   27   28 ar
    48   27   48 1
    49   28   29 ar
    50   28   49 1
    51   29   30 1
    52   30   31 2
@<TRIPOS>MOLECULE
CHEMBL410646__1
   49    52     0     0     0
SMALL
USER_CHARGES

@<TRIPOS>ATOM
      1 C1          0.5058    1.8976   -0.1811 C.3       1 <0>        -0.1660
      2 C2          0.5671    0.3780   -0.0136 C.3       1 <0>         0.2353
      3 C3          0.9198    0.0386    1.4360 C.3       1 <0>        -0.0593
      4 C4         -0.1392    0.5932    2.3537 C.ar      1 <0>        -0.1036
      5 C5          0.0062    1.8581    2.8920 C.ar      1 <0>        -0.1196
      6 C6         -0.9651    2.3668    3.7338 C.ar      1 <0>        -0.0758
      7 C7         -2.0821    1.6109    4.0369 C.ar      1 <0>        -0.0935
      8 C8         -2.2279    0.3463    3.4978 C.ar      1 <0>        -0.0837
      9 C9         -1.2586   -0.1607    2.6527 C.ar      1 <0>        -0.1089
     10 C10        -3.1405    2.1651    4.9553 C.3       1 <0>        -0.2342
     11 F1         -3.2312    3.5501    4.7802 F         1 <0>        -0.2123
     12 F2         -4.3733    1.5754    4.6557 F         1 <0>        -0.2122
     13 P1         -2.6963    1.7991    6.6851 P.3       1 <0>         2.1342
     14 O1         -2.7583    0.2520    6.9241 O.2       1 <0>        -1.1342
     15 O2         -1.2447    2.3141    6.9717 O.3       1 <0>        -1.1324
     16 O3         -3.7042    2.5168    7.6461 O.3       1 <0>        -1.1396
     17 C11        -0.7727   -0.2198   -0.3578 C.ar      1 <0>        -0.0880
     18 C12        -1.8465    0.6049   -0.6365 C.ar      1 <0>        -0.0970
     19 C13        -3.0755    0.0566   -0.9523 C.ar      1 <0>        -0.1152
     20 C14        -3.2306   -1.3165   -0.9898 C.ar      1 <0>        -0.1098
     21 C15        -2.1566   -2.1413   -0.7119 C.ar      1 <0>        -0.1181
     22 C16        -0.9265   -1.5929   -0.4004 C.ar      1 <0>        -0.0976
     23 N1          1.5907   -0.1708   -0.9065 N.pl3     1 <0>        -0.3712
     24 C17         1.5921   -0.1285   -2.2804 C.ar      1 <0>         0.0953
     25 C18         0.7214    0.3915   -3.2322 C.ar      1 <0>        -0.1110
     26 C19         1.0148    0.2672   -4.5612 C.ar      1 <0>        -0.0780
     27 C20         2.1762   -0.3749   -4.9715 C.ar      1 <0>        -0.1385
     28 C21         3.0464   -0.8935   -4.0580 C.ar      1 <0>        -0.0404
     29 C22         2.7692   -0.7791   -2.6891 C.ar      1 <0>        -0.0214
     30 N2          3.4209   -1.1810   -1.5797 N.2       1 <0>        -0.2318
     31 N3          2.7653   -0.8375   -0.5275 N.2       1 <0>         0.0005
     32 H1          1.4749    2.3300    0.0679 H         1 <0>         0.0711
     33 H2          0.2546    2.1394   -1.2138 H         1 <0>         0.0641
     34 H3         -0.2558    2.3059    0.4833 H         1 <0>         0.0991
     35 H4          0.9717   -1.0438    1.5534 H         1 <0>         0.0828
     36 H5          1.8850    0.4780    1.6876 H         1 <0>         0.0875
     37 H6          0.8788    2.4487    2.6552 H         1 <0>         0.1177
     38 H7         -0.8512    3.3548    4.1549 H         1 <0>         0.1286
     39 H8         -3.1003   -0.2445    3.7349 H         1 <0>         0.1253
     40 H9         -1.3743   -1.1472    2.2286 H         1 <0>         0.1135
     41 H10        -1.7253    1.6777   -0.6072 H         1 <0>         0.1277
     42 H11        -3.9146    0.7009   -1.1694 H         1 <0>         0.1237
     43 H12        -4.1910   -1.7450   -1.2358 H         1 <0>         0.1217
     44 H13        -2.2779   -3.2140   -0.7409 H         1 <0>         0.1218
     45 H14        -0.0865   -2.2372   -0.1869 H         1 <0>         0.1157
     46 H15        -0.1841    0.8917   -2.9220 H         1 <0>         0.1300
     47 H16         0.3376    0.6716   -5.2990 H         1 <0>         0.1327
     48 H17         2.3924   -0.4650   -6.0258 H         1 <0>         0.1316
     49 H18         3.9462   -1.3910   -4.3887 H         1 <0>         0.1336
@<TRIPOS>BOND
     1    1    2 1
     2    1   32 1
     3    1   33 1
     4    1   34 1
     5    2    3 1
     6    2   17 1
     7    2   23 1
     8    3    4 1
     9    3   35 1
    10    3   36 1
    11    4    9 ar
    12    4    5 ar
    13    5    6 ar
    14    5   37 1
    15    6    7 ar
    16    6   38 1
    17    7    8 ar
    18    7   10 1
    19    8    9 ar
    20    8   39 1
    21    9   40 1
    22   10   11 1
    23   10   12 1
    24   10   13 1
    25   13   14 2
    26   13   15 1
    27   13   16 1
    28   17   22 ar
    29   17   18 ar
    30   18   19 ar
    31   18   41 1
    32   19   20 ar
    33   19   42 1
    34   20   21 ar
    35   20   43 1
    36   21   22 ar
    37   21   44 1
    38   22   45 1
    39   23   31 1
    40   23   24 1
    41   24   29 ar
    42   24   25 ar
    43   25   26 ar
    44   25   46 1
    45   26   27 ar
    46   26   47 1
    47   27   28 ar
    48   27   48 1
    49   28   29 ar
    50   28   49 1
    51   29   30 1
    52   30   31 2
@<TRIPOS>MOLECULE
CHEMBL557655
   46    48     0     0     0
SMALL
USER_CHARGES

@<TRIPOS>ATOM
      1 C1          1.1397   -0.5400    0.5839 C.ar      1 <0>        -0.1093
      2 C2          2.3302    0.1630    0.5751 C.ar      1 <0>        -0.1120
      3 C3          2.3983    1.4062   -0.0211 C.ar      1 <0>        -0.0383
      4 C4          1.2584    1.9496   -0.6180 C.ar      1 <0>        -0.1562
      5 C5          0.0581    1.2446   -0.6092 C.ar      1 <0>        -0.0519
      6 C6          0.0016   -0.0035   -0.0058 C.ar      1 <0>         0.1157
      7 N1         -1.1997   -0.7213    0.0085 N.am      1 <0>        -0.6734
      8 C7         -2.3733   -0.0687    0.1238 C.2       1 <0>         0.5067
      9 O1         -2.3948    1.1440    0.1307 O.2       1 <0>        -0.5122
     10 C8         -3.6589   -0.8457    0.2442 C.3       1 <0>        -0.1368
     11 C9         -4.8339    0.1273    0.3610 C.3       1 <0>        -0.1050
     12 C10        -6.1391   -0.6616    0.4832 C.3       1 <0>        -0.1200
     13 C11        -7.3141    0.3113    0.5999 C.3       1 <0>        -0.1060
     14 C12        -8.6193   -0.4776    0.7222 C.3       1 <0>        -0.0313
     15 H1         -8.7076   -1.1776   -0.1086 H         1 <0>         0.1125
     16 C13        -9.8130    0.4867    0.7199 C.3       1 <0>        -0.1436
     17 C14       -11.0882    0.0033    1.4445 C.3       1 <0>        -0.0574
     18 S1        -10.4452   -0.6305    3.0642 S.3       1 <0>        -0.2038
     19 S2         -8.6481   -1.3963    2.3208 S.3       1 <0>        -0.1787
     20 C15         1.3451    3.2807   -1.2627 C.2       1 <0>         0.5196
     21 O2          0.4376    3.7170   -1.9420 O.2       1 <0>        -0.4618
     22 O3          2.4840    3.9911   -1.0599 O.3       1 <0>        -0.3182
     23 C16         3.6900    3.2192   -1.1370 C.3       1 <0>         0.0292
     24 H2          3.7413    2.7211   -2.1052 H         1 <0>         0.0717
     25 C17         3.6957    2.1713   -0.0235 C.3       1 <0>        -0.1022
     26 C18         4.8802    4.1295   -0.9765 C.2       1 <0>         0.5092
     27 O4          4.7147    5.3101   -0.7209 O.co2     1 <0>        -0.6622
     28 O5          6.0087    3.6853   -1.1023 O.co2     1 <0>        -0.6799
     29 H3          1.0952   -1.5141    1.0480 H         1 <0>         0.1302
     30 H4          3.2096   -0.2617    1.0365 H         1 <0>         0.1373
     31 H5         -0.8235    1.6666   -1.0687 H         1 <0>         0.1517
     32 H6         -1.1878   -1.6884   -0.0646 H         1 <0>         0.4105
     33 H7         -3.7904   -1.4698   -0.6397 H         1 <0>         0.0961
     34 H8         -3.6202   -1.4768    1.1321 H         1 <0>         0.0971
     35 H9         -4.7024    0.7513    1.2449 H         1 <0>         0.0746
     36 H10        -4.8726    0.7584   -0.5269 H         1 <0>         0.0740
     37 H11        -6.2706   -1.2857   -0.4007 H         1 <0>         0.0658
     38 H12        -6.1004   -1.2928    1.3711 H         1 <0>         0.0700
     39 H13        -7.1826    0.9354    1.4839 H         1 <0>         0.0816
     40 H14        -7.3528    0.9425   -0.2879 H         1 <0>         0.0836
     41 H15        -9.4943    1.4204    1.1833 H         1 <0>         0.0906
     42 H16       -10.0735    0.6998   -0.3168 H         1 <0>         0.1043
     43 H17       -11.7781    0.8322    1.6027 H         1 <0>         0.1273
     44 H18       -11.5696   -0.7970    0.8824 H         1 <0>         0.1023
     45 H19         3.8241    2.6674    0.9385 H         1 <0>         0.0951
     46 H20         4.5225    1.4793   -0.1834 H         1 <0>         0.1035
@<TRIPOS>BOND
     1    1    6 ar
     2    1    2 ar
     3    1   29 1
     4    2    3 ar
     5    2   30 1
     6    3   25 1
     7    3    4 ar
     8    4    5 ar
     9    4   20 1
    10    5    6 ar
    11    5   31 1
    12    6    7 1
    13    7    8 am
    14    7   32 1
    15    8    9 2
    16    8   10 1
    17   10   11 1
    18   10   33 1
    19   10   34 1
    20   11   12 1
    21   11   35 1
    22   11   36 1
    23   12   13 1
    24   12   37 1
    25   12   38 1
    26   13   14 1
    27   13   39 1
    28   13   40 1
    29   14   15 1
    30   14   19 1
    31   14   16 1
    32   16   17 1
    33   16   41 1
    34   16   42 1
    35   17   18 1
    36   17   43 1
    37   17   44 1
    38   18   19 1
    39   20   21 2
    40   20   22 1
    41   22   23 1
    42   23   24 1
    43   23   25 1
    44   23   26 1
    45   25   45 1
    46   25   46 1
    47   26   27 2
    48   26   28 1
@<TRIPOS>MOLECULE
CHEMBL557450
   70    74     0     0     0
SMALL
USER_CHARGES

@<TRIPOS>ATOM
      1 C1         -0.0458    1.3727    0.0593 C.ar      1 <0>        -0.1123
      2 C2          1.1400    2.0829    0.0478 C.ar      1 <0>        -0.1165
      3 C3          2.3479    1.4110    0.0243 C.ar      1 <0>        -0.0972
      4 C4          2.3699    0.0289    0.0129 C.ar      1 <0>        -0.0501
      5 C5          1.1840   -0.6813    0.0253 C.ar      1 <0>        -0.0958
      6 C6         -0.0239   -0.0094    0.0474 C.ar      1 <0>        -0.1154
      7 C7          3.6866   -0.7035   -0.0137 C.3       1 <0>         0.0856
      8 S1          4.9480    0.2806    0.8467 S.3       1 <0>        -0.2040
      9 C8          6.4129   -0.7885    0.8303 C.3       1 <0>        -0.1013
     10 C9          6.1310   -2.0727    1.6020 C.3       1 <0>        -0.1202
     11 C10         5.1922   -2.9825    0.8179 C.3       1 <0>        -0.0666
     12 H1          5.5416   -3.0618   -0.2115 H         1 <0>         0.0902
     13 S2          3.5113   -2.3015    0.8321 S.3       1 <0>        -0.1881
     14 C11         5.1798   -4.3720    1.4582 C.3       1 <0>        -0.0976
     15 C12         4.3372   -5.3203    0.6027 C.3       1 <0>        -0.1219
     16 C13         4.3248   -6.7098    1.2430 C.3       1 <0>        -0.1031
     17 C14         3.4822   -7.6580    0.3875 C.3       1 <0>        -0.1384
     18 C15         3.4700   -9.0267    1.0181 C.2       1 <0>         0.5100
     19 O1          4.0756   -9.2242    2.0502 O.2       1 <0>        -0.5213
     20 N1          2.7861  -10.0311    0.4352 N.am      1 <0>        -0.6726
     21 C16         2.8536  -11.3240    0.9663 C.ar      1 <0>         0.1345
     22 C17         2.9416  -11.5101    2.3399 C.ar      1 <0>        -0.1265
     23 C18         3.0101  -12.7872    2.8560 C.ar      1 <0>        -0.0976
     24 C19         2.9901  -13.8875    2.0116 C.ar      1 <0>        -0.1254
     25 C20         2.8986  -13.7054    0.6470 C.ar      1 <0>        -0.0421
     26 C21         2.8271  -12.4253    0.1236 C.ar      1 <0>        -0.1430
     27 C22         2.8610  -14.8780   -0.2997 C.3       1 <0>        -0.0925
     28 C23         3.3564  -16.1364    0.4149 C.3       1 <0>         0.0225
     29 H2          4.4291  -16.0587    0.5919 H         1 <0>         0.0543
     30 O2          2.6691  -16.2485    1.6662 O.3       1 <0>        -0.3442
     31 C24         3.0730  -15.2646    2.6178 C.3       1 <0>         0.0924
     32 C25         3.0699  -17.3474   -0.4351 C.2       1 <0>         0.5062
     33 O3          3.6232  -17.4800   -1.5135 O.co2     1 <0>        -0.6916
     34 O4          2.2849  -18.1945   -0.0445 O.co2     1 <0>        -0.6723
     35 C26         4.1085   -0.9320   -1.4423 C.ar      1 <0>        -0.0928
     36 C27         3.7153   -2.0803   -2.1039 C.ar      1 <0>        -0.0982
     37 C28         4.1023   -2.2899   -3.4143 C.ar      1 <0>        -0.1200
     38 C29         4.8821   -1.3510   -4.0633 C.ar      1 <0>        -0.1115
     39 C30         5.2746   -0.2023   -3.4020 C.ar      1 <0>        -0.1216
     40 C31         4.8840    0.0093   -2.0930 C.ar      1 <0>        -0.1014
     41 H3         -0.9894    1.8976    0.0822 H         1 <0>         0.1246
     42 H4          1.1229    3.1627    0.0567 H         1 <0>         0.1259
     43 H5          3.2744    1.9660    0.0145 H         1 <0>         0.1294
     44 H6          1.2012   -1.7612    0.0157 H         1 <0>         0.1309
     45 H7         -0.9504   -0.5644    0.0567 H         1 <0>         0.1269
     46 H8          6.6694   -1.0347   -0.2001 H         1 <0>         0.0859
     47 H9          7.2485   -0.2640    1.2938 H         1 <0>         0.1152
     48 H10         7.0700   -2.5961    1.7820 H         1 <0>         0.0866
     49 H11         5.6719   -1.8226    2.5585 H         1 <0>         0.0912
     50 H12         6.1997   -4.7511    1.5236 H         1 <0>         0.0811
     51 H13         4.7514   -4.3074    2.4584 H         1 <0>         0.0763
     52 H14         3.3173   -4.9412    0.5373 H         1 <0>         0.0734
     53 H15         4.7656   -5.3849   -0.3975 H         1 <0>         0.0646
     54 H16         5.3447   -7.0888    1.3084 H         1 <0>         0.0709
     55 H17         3.8964   -6.6452    2.2432 H         1 <0>         0.0717
     56 H18         2.4623   -7.2790    0.3221 H         1 <0>         0.0959
     57 H19         3.9106   -7.7226   -0.6127 H         1 <0>         0.0957
     58 H20         2.2471   -9.8579   -0.3524 H         1 <0>         0.4093
     59 H21         2.9567  -10.6570    3.0020 H         1 <0>         0.1352
     60 H22         3.0802  -12.9315    3.9240 H         1 <0>         0.1245
     61 H23         2.7549  -12.2840   -0.9446 H         1 <0>         0.1246
     62 H24         1.8381  -15.0347   -0.6421 H         1 <0>         0.0829
     63 H25         3.5016  -14.6722   -1.1572 H         1 <0>         0.0857
     64 H26         4.0994  -15.4616    2.9272 H         1 <0>         0.0558
     65 H27         2.4198  -15.3154    3.4889 H         1 <0>         0.0973
     66 H28         3.1060   -2.8139   -1.5968 H         1 <0>         0.1374
     67 H29         3.7956   -3.1874   -3.9310 H         1 <0>         0.1257
     68 H30         5.1850   -1.5151   -5.0869 H         1 <0>         0.1230
     69 H31         5.8842    0.5311   -3.9089 H         1 <0>         0.1242
     70 H32         5.1875    0.9085   -1.5775 H         1 <0>         0.1356
@<TRIPOS>BOND
     1    1    6 ar
     2    1    2 ar
     3    1   41 1
     4    2    3 ar
     5    2   42 1
     6    3    4 ar
     7    3   43 1
     8    4    5 ar
     9    4    7 1
    10    5    6 ar
    11    5   44 1
    12    6   45 1
    13    7   13 1
    14    7    8 1
    15    7   35 1
    16    8    9 1
    17    9   10 1
    18    9   46 1
    19    9   47 1
    20   10   11 1
    21   10   48 1
    22   10   49 1
    23   11   12 1
    24   11   13 1
    25   11   14 1
    26   14   15 1
    27   14   50 1
    28   14   51 1
    29   15   16 1
    30   15   52 1
    31   15   53 1
    32   16   17 1
    33   16   54 1
    34   16   55 1
    35   17   18 1
    36   17   56 1
    37   17   57 1
    38   18   19 2
    39   18   20 am
    40   20   21 1
    41   20   58 1
    42   21   26 ar
    43   21   22 ar
    44   22   23 ar
    45   22   59 1
    46   23   24 ar
    47   23   60 1
    48   24   31 1
    49   24   25 ar
    50   25   26 ar
    51   25   27 1
    52   26   61 1
    53   27   28 1
    54   27   62 1
    55   27   63 1
    56   28   29 1
    57   28   30 1
    58   28   32 1
    59   30   31 1
    60   31   64 1
    61   31   65 1
    62   32   33 2
    63   32   34 1
    64   35   40 ar
    65   35   36 ar
    66   36   37 ar
    67   36   66 1
    68   37   38 ar
    69   37   67 1
    70   38   39 ar
    71   38   68 1
    72   39   40 ar
    73   39   69 1
    74   40   70 1
@<TRIPOS>MOLECULE
CHEMBL303333
   68    70     0     0     0
SMALL
USER_CHARGES

@<TRIPOS>ATOM
      1 C1          3.3778    0.7594   -6.5962 C.3       1 <0>        -0.1531
      2 C2          3.5678   -0.7565   -6.6791 C.3       1 <0>        -0.1247
      3 C3          3.2780   -1.3823   -5.3134 C.3       1 <0>        -0.1169
      4 C4          3.4681   -2.8982   -5.3962 C.3       1 <0>        -0.1324
      5 C5          3.1782   -3.5239   -4.0305 C.3       1 <0>         0.1219
      6 N1          3.3602   -4.9754   -4.1098 N.am      1 <0>        -0.7368
      7 C6          3.1582   -5.7405   -3.0189 C.2       1 <0>         0.5061
      8 O1          2.8256   -5.2274   -1.9715 O.2       1 <0>        -0.5160
      9 C7          3.3454   -7.2336   -3.1005 C.3       1 <0>         0.1428
     10 C8          2.1041   -7.8696   -3.7295 C.3       1 <0>        -0.0821
     11 C9          2.3150   -9.3556   -3.8651 C.ar      1 <0>        -0.1092
     12 C10         1.7336  -10.2101   -2.9781 C.ar      1 <0>        -0.0710
     13 C11         1.9138  -11.5857   -3.0820 C.ar      1 <0>        -0.1096
     14 C12         2.6881  -12.1212   -4.0899 C.ar      1 <0>         0.2373
     15 C13         3.3025  -11.2593   -5.0238 C.ar      1 <0>        -0.0254
     16 C14         3.1069   -9.8607   -4.9102 C.ar      1 <0>        -0.0284
     17 C15         3.7149   -9.0028   -5.8433 C.ar      1 <0>        -0.1220
     18 C16         4.4760   -9.5259   -6.8431 C.ar      1 <0>        -0.1234
     19 C17         4.6626  -10.9020   -6.9573 C.ar      1 <0>        -0.1458
     20 C18         4.0987  -11.7619   -6.0644 C.ar      1 <0>        -0.0749
     21 N2          2.8628  -13.5015   -4.1852 N.am      1 <0>        -0.5115
     22 C19         1.9192  -14.2778   -4.8503 C.ar      1 <0>         0.1776
     23 C20         1.9406  -14.3676   -6.2362 C.ar      1 <0>        -0.1377
     24 C21         1.0035  -15.1384   -6.8939 C.ar      1 <0>        -0.1261
     25 C22         0.0352  -15.8274   -6.1805 C.ar      1 <0>        -0.1452
     26 C23        -0.0030  -15.7508   -4.8055 C.ar      1 <0>        -0.0852
     27 C24         0.9433  -14.9797   -4.1236 C.ar      1 <0>        -0.1260
     28 C25         0.9127  -14.8983   -2.6544 C.2       1 <0>         0.5200
     29 O2          0.0338  -15.4744   -2.0280 O.co2     1 <0>        -0.7016
     30 O3          1.7662  -14.2546   -2.0595 O.co2     1 <0>        -0.6510
     31 C26         3.9459  -14.0833   -3.6330 C.2       1 <0>         0.4902
     32 O4          4.0980  -15.2846   -3.7159 O.2       1 <0>        -0.5399
     33 C27         4.9593  -13.2495   -2.9186 C.2       1 <0>         0.5072
     34 O5          5.9401  -13.7765   -2.4185 O.co2     1 <0>        -0.6622
     35 O6          4.8064  -12.0415   -2.8352 O.co2     1 <0>        -0.6476
     36 N3          3.5425   -7.7754   -1.7537 N.am      1 <0>        -0.7106
     37 C28         2.5615   -7.6717   -0.8354 C.2       1 <0>         0.5290
     38 O7          1.4810   -7.2200   -1.1507 O.2       1 <0>        -0.5354
     39 C29         2.8072   -8.1171    0.5832 C.3       1 <0>        -0.1752
     40 H1          2.3510    0.9815   -6.3053 H         1 <0>         0.0534
     41 H2          4.0626    1.1714   -5.8551 H         1 <0>         0.0530
     42 H3          3.5843    1.2052   -7.5692 H         1 <0>         0.0519
     43 H4          2.8830   -1.1686   -7.4203 H         1 <0>         0.0620
     44 H5          4.5946   -0.9786   -6.9700 H         1 <0>         0.0615
     45 H6          3.9628   -0.9702   -4.5722 H         1 <0>         0.0638
     46 H7          2.2513   -1.1602   -5.0225 H         1 <0>         0.0646
     47 H8          2.7832   -3.3102   -6.1374 H         1 <0>         0.0701
     48 H9          4.4948   -3.1202   -5.6871 H         1 <0>         0.0691
     49 H10         3.8631   -3.1119   -3.2893 H         1 <0>         0.0625
     50 H11         2.1515   -3.3018   -3.7396 H         1 <0>         0.0642
     51 H12         3.6262   -5.3858   -4.9476 H         1 <0>         0.3993
     52 H13         4.2184   -7.4574   -3.7135 H         1 <0>         0.1077
     53 H14         1.2383   -7.6820   -3.0943 H         1 <0>         0.1044
     54 H15         1.9329   -7.4355   -4.7145 H         1 <0>         0.0716
     55 H16         1.1229   -9.8132   -2.1806 H         1 <0>         0.1106
     56 H17         1.4422  -12.2416   -2.3652 H         1 <0>         0.1483
     57 H18         3.5783   -7.9342   -5.7674 H         1 <0>         0.1116
     58 H19         4.9420   -8.8646   -7.5586 H         1 <0>         0.1084
     59 H20         5.2707  -11.2918   -7.7603 H         1 <0>         0.1096
     60 H21         4.2525  -12.8262   -6.1646 H         1 <0>         0.1147
     61 H22         2.6912  -13.8335   -6.7998 H         1 <0>         0.1148
     62 H23         1.0245  -15.2048   -7.9716 H         1 <0>         0.1116
     63 H24        -0.6935  -16.4273   -6.7054 H         1 <0>         0.1105
     64 H25        -0.7602  -16.2892   -4.2548 H         1 <0>         0.1245
     65 H26         4.3790   -8.2088   -1.5229 H         1 <0>         0.4103
     66 H27         3.6280   -7.5395    1.0083 H         1 <0>         0.0810
     67 H28         1.9059   -7.9578    1.1753 H         1 <0>         0.0865
     68 H29         3.0653   -9.1760    0.5920 H         1 <0>         0.0934
@<TRIPOS>BOND
     1    1    2 1
     2    1   40 1
     3    1   41 1
     4    1   42 1
     5    2    3 1
     6    2   43 1
     7    2   44 1
     8    3    4 1
     9    3   45 1
    10    3   46 1
    11    4    5 1
    12    4   47 1
    13    4   48 1
    14    5    6 1
    15    5   49 1
    16    5   50 1
    17    6    7 am
    18    6   51 1
    19    7    8 2
    20    7    9 1
    21    9   10 1
    22    9   36 1
    23    9   52 1
    24   10   11 1
    25   10   53 1
    26   10   54 1
    27   11   16 ar
    28   11   12 ar
    29   12   13 ar
    30   12   55 1
    31   13   14 ar
    32   13   56 1
    33   14   15 ar
    34   14   21 1
    35   15   20 ar
    36   15   16 ar
    37   16   17 ar
    38   17   18 ar
    39   17   57 1
    40   18   19 ar
    41   18   58 1
    42   19   20 ar
    43   19   59 1
    44   20   60 1
    45   21   22 1
    46   21   31 am
    47   22   27 ar
    48   22   23 ar
    49   23   24 ar
    50   23   61 1
    51   24   25 ar
    52   24   62 1
    53   25   26 ar
    54   25   63 1
    55   26   27 ar
    56   26   64 1
    57   27   28 1
    58   28   29 2
    59   28   30 1
    60   31   32 2
    61   31   33 1
    62   33   34 2
    63   33   35 1
    64   36   37 am
    65   36   65 1
    66   37   38 2
    67   37   39 1
    68   39   66 1
    69   39   67 1
    70   39   68 1
@<TRIPOS>MOLECULE
CHEMBL303333__1
   68    70     0     0     0
SMALL
USER_CHARGES

@<TRIPOS>ATOM
      1 C1          1.8447    1.3332    1.7874 C.3       1 <0>        -0.1531
      2 C2          1.6465   -0.1695    1.5788 C.3       1 <0>        -0.1249
      3 C3          2.4214   -0.6188    0.3384 C.3       1 <0>        -0.1167
      4 C4          2.2232   -2.1215    0.1298 C.3       1 <0>        -0.1327
      5 C5          2.9980   -2.5707   -1.1106 C.3       1 <0>         0.1225
      6 N1          2.8083   -4.0096   -1.3104 N.am      1 <0>        -0.7372
      7 C6          3.4014   -4.6296   -2.3497 C.2       1 <0>         0.5049
      8 O1          4.0923   -3.9965   -3.1196 O.2       1 <0>        -0.5104
      9 C7          3.2062   -6.1098   -2.5552 C.3       1 <0>         0.1426
     10 C8          1.8547   -6.3574   -3.2281 C.3       1 <0>        -0.0791
     11 C9          1.6047   -7.8405   -3.3225 C.ar      1 <0>        -0.1107
     12 C10         1.9333   -8.5159   -4.4586 C.ar      1 <0>        -0.0698
     13 C11         1.7119   -9.8849   -4.5700 C.ar      1 <0>        -0.1135
     14 C12         1.1523  -10.5956   -3.5289 C.ar      1 <0>         0.2388
     15 C13         0.8022   -9.9215   -2.3391 C.ar      1 <0>        -0.0230
     16 C14         1.0377   -8.5283   -2.2362 C.ar      1 <0>        -0.0277
     17 C15         0.6935   -7.8580   -1.0494 C.ar      1 <0>        -0.1217
     18 C16         0.1457   -8.5551   -0.0167 C.ar      1 <0>        -0.1229
     19 C17        -0.0798   -9.9265   -0.1169 C.ar      1 <0>        -0.1452
     20 C18         0.2302  -10.6060   -1.2557 C.ar      1 <0>        -0.0739
     21 N2          0.9340  -11.9676   -3.6506 N.am      1 <0>        -0.5126
     22 C19         1.9718  -12.8615   -3.4067 C.ar      1 <0>         0.1778
     23 C20         2.2710  -13.2458   -2.1059 C.ar      1 <0>        -0.1358
     24 C21         3.3010  -14.1326   -1.8663 C.ar      1 <0>        -0.1264
     25 C22         4.0445  -14.6461   -2.9175 C.ar      1 <0>        -0.1449
     26 C23         3.7636  -14.2769   -4.2146 C.ar      1 <0>        -0.0855
     27 C24         2.7190  -13.3846   -4.4750 C.ar      1 <0>        -0.1259
     28 C25         2.4089  -12.9906   -5.8587 C.2       1 <0>         0.5186
     29 O2          3.1350  -13.3515   -6.7748 O.co2     1 <0>        -0.7020
     30 O3          1.4250  -12.3023   -6.0929 O.co2     1 <0>        -0.6490
     31 C26        -0.2824  -12.4276   -4.0046 C.2       1 <0>         0.4911
     32 O4         -0.4724  -13.6216   -4.1106 O.2       1 <0>        -0.5392
     33 C27        -1.3970  -11.4676   -4.2666 C.2       1 <0>         0.5053
     34 O5         -2.4985  -11.8842   -4.5872 O.co2     1 <0>        -0.6615
     35 O6         -1.2059  -10.2668   -4.1600 O.co2     1 <0>        -0.6465
     36 N3          4.2785   -6.6301   -3.4070 N.am      1 <0>        -0.7164
     37 C28         4.4426   -6.1471   -4.6545 C.2       1 <0>         0.5201
     38 O7          3.7026   -5.2816   -5.0718 O.2       1 <0>        -0.5205
     39 C29         5.5456   -6.6824   -5.5307 C.3       1 <0>        -0.1746
     40 H1          2.9052    1.5441    1.9253 H         1 <0>         0.0526
     41 H2          1.4774    1.8728    0.9144 H         1 <0>         0.0536
     42 H3          1.2927    1.6533    2.6711 H         1 <0>         0.0520
     43 H4          2.0138   -0.7091    2.4518 H         1 <0>         0.0612
     44 H5          0.5861   -0.3804    1.4409 H         1 <0>         0.0626
     45 H6          2.0541   -0.0792   -0.5346 H         1 <0>         0.0649
     46 H7          3.4818   -0.4078    0.4763 H         1 <0>         0.0633
     47 H8          2.5905   -2.6610    1.0028 H         1 <0>         0.0687
     48 H9          1.1627   -2.3324   -0.0081 H         1 <0>         0.0710
     49 H10         2.6308   -2.0312   -1.9836 H         1 <0>         0.0645
     50 H11         4.0585   -2.3598   -0.9728 H         1 <0>         0.0620
     51 H12         2.2558   -4.5160   -0.6946 H         1 <0>         0.3994
     52 H13         3.2301   -6.6167   -1.5905 H         1 <0>         0.1072
     53 H14         1.0646   -5.8925   -2.6384 H         1 <0>         0.0768
     54 H15         1.8627   -5.9259   -4.2291 H         1 <0>         0.0972
     55 H16         2.3727   -7.9799   -5.2868 H         1 <0>         0.1080
     56 H17         1.9809  -10.3967   -5.4821 H         1 <0>         0.1470
     57 H18         0.8633   -6.7954   -0.9574 H         1 <0>         0.1124
     58 H19        -0.1178   -8.0378    0.8939 H         1 <0>         0.1086
     59 H20        -0.5152  -10.4566    0.7173 H         1 <0>         0.1097
     60 H21         0.0492  -11.6688   -1.3198 H         1 <0>         0.1142
     61 H22         1.6972  -12.8500   -1.2810 H         1 <0>         0.1142
     62 H23         3.5295  -14.4282   -0.8530 H         1 <0>         0.1115
     63 H24         4.8485  -15.3392   -2.7185 H         1 <0>         0.1104
     64 H25         4.3466  -14.6796   -5.0297 H         1 <0>         0.1242
     65 H26         4.8704   -7.3223   -3.0732 H         1 <0>         0.4045
     66 H27         5.4045   -7.7529   -5.6793 H         1 <0>         0.0912
     67 H28         5.5218   -6.1754   -6.4954 H         1 <0>         0.0882
     68 H29         6.5085   -6.5060   -5.0513 H         1 <0>         0.0807
@<TRIPOS>BOND
     1    1    2 1
     2    1   40 1
     3    1   41 1
     4    1   42 1
     5    2    3 1
     6    2   43 1
     7    2   44 1
     8    3    4 1
     9    3   45 1
    10    3   46 1
    11    4    5 1
    12    4   47 1
    13    4   48 1
    14    5    6 1
    15    5   49 1
    16    5   50 1
    17    6    7 am
    18    6   51 1
    19    7    8 2
    20    7    9 1
    21    9   10 1
    22    9   36 1
    23    9   52 1
    24   10   11 1
    25   10   53 1
    26   10   54 1
    27   11   16 ar
    28   11   12 ar
    29   12   13 ar
    30   12   55 1
    31   13   14 ar
    32   13   56 1
    33   14   15 ar
    34   14   21 1
    35   15   20 ar
    36   15   16 ar
    37   16   17 ar
    38   17   18 ar
    39   17   57 1
    40   18   19 ar
    41   18   58 1
    42   19   20 ar
    43   19   59 1
    44   20   60 1
    45   21   22 1
    46   21   31 am
    47   22   27 ar
    48   22   23 ar
    49   23   24 ar
    50   23   61 1
    51   24   25 ar
    52   24   62 1
    53   25   26 ar
    54   25   63 1
    55   26   27 ar
    56   26   64 1
    57   27   28 1
    58   28   29 2
    59   28   30 1
    60   31   32 2
    61   31   33 1
    62   33   34 2
    63   33   35 1
    64   36   37 am
    65   36   65 1
    66   37   38 2
    67   37   39 1
    68   39   66 1
    69   39   67 1
    70   39   68 1
@<TRIPOS>MOLECULE
CHEMBL253500
   69    73     0     0     0
SMALL
USER_CHARGES

@<TRIPOS>ATOM
      1 C1         -0.0167    1.3781    0.0096 C.ar      1 <0>        -0.1257
      2 C2          1.1709    2.0855    0.0021 C.ar      1 <0>        -0.1184
      3 C3          2.3773    1.4107   -0.0130 C.ar      1 <0>        -0.1175
      4 C4          2.3960    0.0285   -0.0201 C.ar      1 <0>        -0.0819
      5 C5          1.2084   -0.6789   -0.0117 C.ar      1 <0>        -0.1183
      6 C6          0.0021   -0.0041    0.0020 C.ar      1 <0>        -0.1180
      7 C7          3.7112   -0.7071   -0.0376 C.3       1 <0>        -0.0816
      8 C8          4.1714   -0.9633    1.3989 C.3       1 <0>        -0.1085
      9 C9          5.5066   -1.7102    1.3812 C.3       1 <0>        -0.0444
     10 C10         5.9598   -1.9625    2.7961 C.2       1 <0>        -0.0186
     11 C11         6.6449   -1.1113    3.5834 C.2       1 <0>        -0.0171
     12 N1          6.8521   -1.7135    4.7639 N.2       1 <0>        -0.4716
     13 C12         6.3214   -2.9055    4.7379 C.2       1 <0>         0.2043
     14 N2          5.7492   -3.0985    3.5300 N.pl3     1 <0>        -0.5578
     15 H1          5.2787   -3.8944    3.2366 H         1 <0>         0.4162
     16 C13         6.3393   -3.8997    5.8703 C.3       1 <0>         0.2519
     17 C14         7.7834   -4.1411    6.3143 C.3       1 <0>        -0.0802
     18 C15         7.7935   -5.0392    7.5245 C.ar      1 <0>        -0.0932
     19 C16         7.7337   -4.4913    8.7922 C.ar      1 <0>        -0.1084
     20 C17         7.7429   -5.3150    9.9023 C.ar      1 <0>        -0.1094
     21 C18         7.8114   -6.6866    9.7446 C.ar      1 <0>        -0.0391
     22 C19         7.8703   -7.2346    8.4768 C.ar      1 <0>        -0.0806
     23 C20         7.8567   -6.4110    7.3666 C.ar      1 <0>        -0.0689
     24 C21         7.8225   -7.5846   10.9548 C.3       1 <0>        -0.5479
     25 C22         8.9874   -8.6113   10.8950 C.3       1 <0>        -0.1439
     26 C23         8.4783   -9.9299   11.3942 C.2       1 <0>         0.4321
     27 O1          9.3478  -10.8877   11.7775 O.3       1 <0>        -0.6644
     28 N3          7.2165  -10.1470   11.4573 N.2       1 <0>        -0.9158
     29 S1          6.4167   -8.7732   10.9299 S.o2      1 <0>         2.4592
     30 O2          5.4710   -8.4637   11.9445 O.2       1 <0>        -0.9885
     31 O3          6.0094   -9.0513    9.5973 O.2       1 <0>        -0.9732
     32 N4          5.7491   -5.1628    5.4205 N.pl3     1 <0>        -1.1186
     33 S2          4.8556   -6.0797    6.4710 S.o2      1 <0>         2.6667
     34 O4          4.4047   -7.2116    5.7397 O.2       1 <0>        -0.9458
     35 O5          5.6231   -6.1978    7.6610 O.2       1 <0>        -0.8876
     36 C24         3.4210   -5.1453    6.8877 C.ar      1 <0>        -0.6521
     37 C25         3.4460   -4.2871    7.9715 C.ar      1 <0>        -0.0288
     38 C26         2.3214   -3.5535    8.2995 C.ar      1 <0>        -0.1070
     39 C27         1.1703   -3.6774    7.5446 C.ar      1 <0>        -0.1001
     40 C28         1.1441   -4.5363    6.4592 C.ar      1 <0>         0.0786
     41 C29         2.2733   -5.2662    6.1278 C.ar      1 <0>        -0.0587
     42 F1          0.0193   -4.6585    5.7208 F         1 <0>        -0.1351
     43 H2         -0.9591    1.9053    0.0259 H         1 <0>         0.1203
     44 H3          1.1563    3.1654    0.0076 H         1 <0>         0.1212
     45 H4          3.3051    1.9634   -0.0196 H         1 <0>         0.1216
     46 H5          1.2231   -1.7588   -0.0176 H         1 <0>         0.1200
     47 H6         -0.9258   -0.5567    0.0082 H         1 <0>         0.1210
     48 H7          3.5884   -1.6586   -0.5549 H         1 <0>         0.0727
     49 H8          4.4573   -0.1052   -0.5563 H         1 <0>         0.0754
     50 H9          4.2941   -0.0118    1.9163 H         1 <0>         0.0708
     51 H10         3.4252   -1.5652    1.9176 H         1 <0>         0.0621
     52 H11         5.3838   -2.6617    0.8639 H         1 <0>         0.0714
     53 H12         6.2527   -1.1082    0.8625 H         1 <0>         0.0902
     54 H13         6.9704   -0.1180    3.3119 H         1 <0>         0.1703
     55 H14         5.7626   -3.5070    6.7077 H         1 <0>         0.1105
     56 H15         8.3378   -4.6160    5.5048 H         1 <0>         0.0787
     57 H16         8.2506   -3.1887    6.5647 H         1 <0>         0.0982
     58 H17         7.6802   -3.4197    8.9154 H         1 <0>         0.1156
     59 H18         7.6970   -4.8870   10.8927 H         1 <0>         0.1155
     60 H19         7.9241   -8.3062    8.3536 H         1 <0>         0.1249
     61 H20         7.8990   -6.8392    6.3761 H         1 <0>         0.1074
     62 H21         7.8429   -7.0063   11.8785 H         1 <0>         0.1361
     63 H22         9.3328   -8.7160    9.8664 H         1 <0>         0.1038
     64 H23         9.8094   -8.2719   11.5253 H         1 <0>         0.1046
     65 H24         5.8816   -5.4621    4.5074 H         1 <0>         0.4136
     66 H25         4.3448   -4.1902    8.5624 H         1 <0>         0.1532
     67 H26         2.3421   -2.8835    9.1463 H         1 <0>         0.1457
     68 H27         0.2915   -3.1046    7.8015 H         1 <0>         0.1436
     69 H28         2.2554   -5.9333    5.2786 H         1 <0>         0.1492
@<TRIPOS>BOND
     1    1    6 ar
     2    1    2 ar
     3    1   43 1
     4    2    3 ar
     5    2   44 1
     6    3    4 ar
     7    3   45 1
     8    4    5 ar
     9    4    7 1
    10    5    6 ar
    11    5   46 1
    12    6   47 1
    13    7    8 1
    14    7   48 1
    15    7   49 1
    16    8    9 1
    17    8   50 1
    18    8   51 1
    19    9   10 1
    20    9   52 1
    21    9   53 1
    22   10   14 1
    23   10   11 2
    24   11   12 1
    25   11   54 1
    26   12   13 2
    27   13   14 1
    28   13   16 1
    29   14   15 1
    30   16   17 1
    31   16   32 1
    32   16   55 1
    33   17   18 1
    34   17   56 1
    35   17   57 1
    36   18   23 ar
    37   18   19 ar
    38   19   20 ar
    39   19   58 1
    40   20   21 ar
    41   20   59 1
    42   21   22 ar
    43   21   24 1
    44   22   23 ar
    45   22   60 1
    46   23   61 1
    47   24   29 1
    48   24   25 1
    49   24   62 1
    50   25   26 1
    51   25   63 1
    52   25   64 1
    53   26   27 1
    54   26   28 2
    55   28   29 1
    56   29   30 2
    57   29   31 2
    58   32   33 1
    59   32   65 1
    60   33   34 2
    61   33   35 2
    62   33   36 1
    63   36   41 ar
    64   36   37 ar
    65   37   38 ar
    66   37   66 1
    67   38   39 ar
    68   38   67 1
    69   39   40 ar
    70   39   68 1
    71   40   41 ar
    72   40   42 1
    73   41   69 1
@<TRIPOS>MOLECULE
CHEMBL253500__1
   69    73     0     0     0
SMALL
USER_CHARGES

@<TRIPOS>ATOM
      1 C1         -0.0167    1.3781    0.0096 C.ar      1 <0>        -0.1276
      2 C2          1.1709    2.0855    0.0021 C.ar      1 <0>        -0.1179
      3 C3          2.3773    1.4107   -0.0130 C.ar      1 <0>        -0.1164
      4 C4          2.3960    0.0285   -0.0201 C.ar      1 <0>        -0.0784
      5 C5          1.2084   -0.6789   -0.0117 C.ar      1 <0>        -0.1195
      6 C6          0.0021   -0.0041    0.0020 C.ar      1 <0>        -0.1198
      7 C7          3.7112   -0.7071   -0.0376 C.3       1 <0>        -0.0825
      8 C8          4.1714   -0.9633    1.3989 C.3       1 <0>        -0.1034
      9 C9          5.5066   -1.7102    1.3812 C.3       1 <0>        -0.0326
     10 C10         5.9598   -1.9625    2.7961 C.2       1 <0>         0.0092
     11 C11         6.2793   -3.1599    3.3231 C.2       1 <0>        -0.0515
     12 N1          6.6354   -2.9369    4.6259 N.pl3     1 <0>        -0.5613
     13 C12         6.5210   -1.6101    4.8497 C.2       1 <0>         0.2068
     14 N2          6.1213   -1.0331    3.7496 N.2       1 <0>        -0.4667
     15 H1          6.9172   -3.6068    5.2682 H         1 <0>         0.4180
     16 C13         6.8122   -0.9109    6.1526 C.3       1 <0>         0.2515
     17 C14         7.8331    0.2039    5.9160 C.3       1 <0>        -0.0799
     18 C15         8.0323    0.9815    7.1914 C.ar      1 <0>        -0.0932
     19 C16         7.2356    2.0778    7.4641 C.ar      1 <0>        -0.1083
     20 C17         7.4184    2.7912    8.6340 C.ar      1 <0>        -0.1095
     21 C18         8.3974    2.4079    9.5314 C.ar      1 <0>        -0.0389
     22 C19         9.1935    1.3111    9.2592 C.ar      1 <0>        -0.0806
     23 C20         9.0079    0.5952    8.0913 C.ar      1 <0>        -0.0689
     24 C21         8.5973    3.1861   10.8064 C.3       1 <0>        -0.5480
     25 C22        10.0882    3.5723   11.0133 C.3       1 <0>        -0.1439
     26 C23        10.4216    3.3998   12.4646 C.2       1 <0>         0.4320
     27 O1         11.5214    3.9882   12.9790 O.3       1 <0>        -0.6644
     28 N3          9.6612    2.6934   13.2169 N.2       1 <0>        -0.9157
     29 S1          8.3886    2.1189   12.2919 S.o2      1 <0>         2.4593
     30 O2          7.2078    2.4632   13.0037 O.2       1 <0>        -0.9885
     31 O3          8.7069    0.7662   11.9952 O.2       1 <0>        -0.9732
     32 N4          7.3551   -1.8745    7.1133 N.pl3     1 <0>        -1.1186
     33 S2          6.9872   -1.7367    8.7220 S.o2      1 <0>         2.6671
     34 O4          7.6325   -2.8182    9.3802 O.2       1 <0>        -0.9457
     35 O5          7.2199   -0.3807    9.0772 O.2       1 <0>        -0.8877
     36 C24         5.2541   -2.0097    8.8853 C.ar      1 <0>        -0.6521
     37 C25         4.3757   -0.9456    8.7980 C.ar      1 <0>        -0.0288
     38 C26         3.0159   -1.1582    8.9259 C.ar      1 <0>        -0.1070
     39 C27         2.5328   -2.4352    9.1417 C.ar      1 <0>        -0.1001
     40 C28         3.4114   -3.5014    9.2293 C.ar      1 <0>         0.0783
     41 C29         4.7731   -3.2880    9.0949 C.ar      1 <0>        -0.0587
     42 F1          2.9404   -4.7499    9.4407 F         1 <0>        -0.1351
     43 H2         -0.9591    1.9053    0.0259 H         1 <0>         0.1192
     44 H3          1.1563    3.1654    0.0076 H         1 <0>         0.1209
     45 H4          3.3051    1.9634   -0.0196 H         1 <0>         0.1221
     46 H5          1.2231   -1.7588   -0.0176 H         1 <0>         0.1193
     47 H6         -0.9258   -0.5567    0.0082 H         1 <0>         0.1193
     48 H7          3.5884   -1.6586   -0.5549 H         1 <0>         0.0704
     49 H8          4.4573   -0.1052   -0.5563 H         1 <0>         0.0731
     50 H9          4.2941   -0.0118    1.9163 H         1 <0>         0.0736
     51 H10         3.4252   -1.5652    1.9176 H         1 <0>         0.0598
     52 H11         5.3838   -2.6617    0.8639 H         1 <0>         0.0729
     53 H12         6.2527   -1.1082    0.8625 H         1 <0>         0.0755
     54 H13         6.2583   -4.1129    2.8155 H         1 <0>         0.1762
     55 H14         5.8915   -0.4823    6.5486 H         1 <0>         0.1105
     56 H15         8.7821   -0.2326    5.6047 H         1 <0>         0.0785
     57 H16         7.4674    0.8721    5.1364 H         1 <0>         0.0980
     58 H17         6.4707    2.3773    6.7629 H         1 <0>         0.1153
     59 H18         6.7964    3.6481    8.8467 H         1 <0>         0.1154
     60 H19         9.9587    1.0118    9.9602 H         1 <0>         0.1249
     61 H20         9.6274   -0.2640    7.8804 H         1 <0>         0.1074
     62 H21         7.9464    4.0596   10.8450 H         1 <0>         0.1361
     63 H22        10.7233    2.9233   10.4104 H         1 <0>         0.1038
     64 H23        10.2429    4.6111   10.7214 H         1 <0>         0.1045
     65 H24         7.9301   -2.5932    6.8070 H         1 <0>         0.4138
     66 H25         4.7523    0.0526    8.6301 H         1 <0>         0.1531
     67 H26         2.3306   -0.3263    8.8575 H         1 <0>         0.1456
     68 H27         1.4704   -2.6010    9.2424 H         1 <0>         0.1436
     69 H28         5.4591   -4.1197    9.1586 H         1 <0>         0.1495
@<TRIPOS>BOND
     1    1    6 ar
     2    1    2 ar
     3    1   43 1
     4    2    3 ar
     5    2   44 1
     6    3    4 ar
     7    3   45 1
     8    4    5 ar
     9    4    7 1
    10    5    6 ar
    11    5   46 1
    12    6   47 1
    13    7    8 1
    14    7   48 1
    15    7   49 1
    16    8    9 1
    17    8   50 1
    18    8   51 1
    19    9   52 1
    20    9   53 1
    21    9   10 1
    22   10   14 1
    23   10   11 2
    24   11   54 1
    25   11   12 1
    26   12   13 1
    27   12   15 1
    28   13   16 1
    29   13   14 2
    30   16   17 1
    31   16   32 1
    32   16   55 1
    33   17   18 1
    34   17   56 1
    35   17   57 1
    36   18   23 ar
    37   18   19 ar
    38   19   20 ar
    39   19   58 1
    40   20   21 ar
    41   20   59 1
    42   21   22 ar
    43   21   24 1
    44   22   23 ar
    45   22   60 1
    46   23   61 1
    47   24   29 1
    48   24   25 1
    49   24   62 1
    50   25   26 1
    51   25   63 1
    52   25   64 1
    53   26   27 1
    54   26   28 2
    55   28   29 1
    56   29   30 2
    57   29   31 2
    58   32   33 1
    59   32   65 1
    60   33   34 2
    61   33   35 2
    62   33   36 1
    63   36   41 ar
    64   36   37 ar
    65   37   38 ar
    66   37   66 1
    67   38   39 ar
    68   38   67 1
    69   39   40 ar
    70   39   68 1
    71   40   41 ar
    72   40   42 1
    73   41   69 1
@<TRIPOS>MOLECULE
CHEMBL253500__2
   69    73     0     0     0
SMALL
USER_CHARGES

@<TRIPOS>ATOM
      1 C1         -0.0167    1.3781    0.0096 C.ar      1 <0>        -0.1258
      2 C2          1.1709    2.0855    0.0021 C.ar      1 <0>        -0.1184
      3 C3          2.3773    1.4107   -0.0130 C.ar      1 <0>        -0.1175
      4 C4          2.3960    0.0285   -0.0201 C.ar      1 <0>        -0.0816
      5 C5          1.2084   -0.6789   -0.0117 C.ar      1 <0>        -0.1183
      6 C6          0.0021   -0.0041    0.0020 C.ar      1 <0>        -0.1182
      7 C7          3.7112   -0.7071   -0.0376 C.3       1 <0>        -0.0818
      8 C8          4.1714   -0.9633    1.3989 C.3       1 <0>        -0.1082
      9 C9          5.5066   -1.7102    1.3812 C.3       1 <0>        -0.0444
     10 C10         5.9598   -1.9625    2.7961 C.2       1 <0>        -0.0188
     11 C11         6.6449   -1.1113    3.5834 C.2       1 <0>        -0.0169
     12 N1          6.8521   -1.7135    4.7639 N.2       1 <0>        -0.4712
     13 C12         6.3214   -2.9055    4.7379 C.2       1 <0>         0.2044
     14 N2          5.7492   -3.0985    3.5300 N.pl3     1 <0>        -0.5579
     15 H1          5.2787   -3.8944    3.2366 H         1 <0>         0.4160
     16 C13         6.3393   -3.8997    5.8703 C.3       1 <0>         0.2529
     17 C14         7.7834   -4.1411    6.3143 C.3       1 <0>        -0.0809
     18 C15         7.7935   -5.0392    7.5245 C.ar      1 <0>        -0.0935
     19 C16         7.7337   -4.4913    8.7922 C.ar      1 <0>        -0.1076
     20 C17         7.7429   -5.3150    9.9023 C.ar      1 <0>        -0.1101
     21 C18         7.8114   -6.6866    9.7446 C.ar      1 <0>        -0.0281
     22 C19         7.8703   -7.2346    8.4768 C.ar      1 <0>        -0.0820
     23 C20         7.8567   -6.4110    7.3666 C.ar      1 <0>        -0.0648
     24 C21         7.8225   -7.5846   10.9548 C.3       1 <0>        -0.5468
     25 C22         6.7635   -8.7158   10.8377 C.3       1 <0>        -0.1460
     26 C23         7.4367   -9.9346   10.2823 C.2       1 <0>         0.4337
     27 O1          6.6975  -10.9326    9.7550 O.3       1 <0>        -0.6613
     28 N3          8.7149  -10.0282   10.3082 N.2       1 <0>        -0.9117
     29 S1          9.3329   -8.6362   11.0050 S.o2      1 <0>         2.4530
     30 O2         10.3174   -8.1557   10.0999 O.2       1 <0>        -0.9724
     31 O3          9.6636   -8.9877   12.3415 O.2       1 <0>        -0.9967
     32 N4          5.7491   -5.1628    5.4205 N.pl3     1 <0>        -1.1172
     33 S2          4.8556   -6.0797    6.4710 S.o2      1 <0>         2.6665
     34 O4          4.4047   -7.2116    5.7397 O.2       1 <0>        -0.9474
     35 O5          5.6231   -6.1978    7.6610 O.2       1 <0>        -0.8912
     36 C24         3.4210   -5.1453    6.8877 C.ar      1 <0>        -0.6515
     37 C25         3.4460   -4.2871    7.9715 C.ar      1 <0>        -0.0280
     38 C26         2.3214   -3.5535    8.2995 C.ar      1 <0>        -0.1077
     39 C27         1.1703   -3.6774    7.5446 C.ar      1 <0>        -0.1003
     40 C28         1.1441   -4.5363    6.4592 C.ar      1 <0>         0.0787
     41 C29         2.2733   -5.2662    6.1278 C.ar      1 <0>        -0.0584
     42 F1          0.0193   -4.6585    5.7208 F         1 <0>        -0.1349
     43 H2         -0.9591    1.9053    0.0259 H         1 <0>         0.1202
     44 H3          1.1563    3.1654    0.0076 H         1 <0>         0.1212
     45 H4          3.3051    1.9634   -0.0196 H         1 <0>         0.1217
     46 H5          1.2231   -1.7588   -0.0176 H         1 <0>         0.1200
     47 H6         -0.9258   -0.5567    0.0082 H         1 <0>         0.1209
     48 H7          3.5884   -1.6586   -0.5549 H         1 <0>         0.0727
     49 H8          4.4573   -0.1052   -0.5563 H         1 <0>         0.0756
     50 H9          4.2941   -0.0118    1.9163 H         1 <0>         0.0707
     51 H10         3.4252   -1.5652    1.9176 H         1 <0>         0.0619
     52 H11         5.3838   -2.6617    0.8639 H         1 <0>         0.0715
     53 H12         6.2527   -1.1082    0.8625 H         1 <0>         0.0903
     54 H13         6.9704   -0.1180    3.3119 H         1 <0>         0.1703
     55 H14         5.7626   -3.5070    6.7077 H         1 <0>         0.1102
     56 H15         8.3378   -4.6160    5.5048 H         1 <0>         0.0795
     57 H16         8.2506   -3.1887    6.5647 H         1 <0>         0.0986
     58 H17         7.6802   -3.4197    8.9154 H         1 <0>         0.1148
     59 H18         7.6970   -4.8870   10.8927 H         1 <0>         0.1136
     60 H19         7.9241   -8.3062    8.3536 H         1 <0>         0.1192
     61 H20         7.8990   -6.8392    6.3761 H         1 <0>         0.1070
     62 H21         7.7006   -7.0130   11.8749 H         1 <0>         0.1350
     63 H22         6.3533   -8.9389   11.8226 H         1 <0>         0.1016
     64 H23         5.9621   -8.4014   10.1691 H         1 <0>         0.1105
     65 H24         5.8816   -5.4621    4.5074 H         1 <0>         0.4145
     66 H25         4.3448   -4.1902    8.5624 H         1 <0>         0.1536
     67 H26         2.3421   -2.8835    9.1463 H         1 <0>         0.1450
     68 H27         0.2915   -3.1046    7.8015 H         1 <0>         0.1432
     69 H28         2.2554   -5.9333    5.2786 H         1 <0>         0.1494
@<TRIPOS>BOND
     1    1    6 ar
     2    1    2 ar
     3    1   43 1
     4    2    3 ar
     5    2   44 1
     6    3    4 ar
     7    3   45 1
     8    4    5 ar
     9    4    7 1
    10    5    6 ar
    11    5   46 1
    12    6   47 1
    13    7    8 1
    14    7   48 1
    15    7   49 1
    16    8    9 1
    17    8   50 1
    18    8   51 1
    19    9   10 1
    20    9   52 1
    21    9   53 1
    22   10   14 1
    23   10   11 2
    24   11   12 1
    25   11   54 1
    26   12   13 2
    27   13   14 1
    28   13   16 1
    29   14   15 1
    30   16   17 1
    31   16   32 1
    32   16   55 1
    33   17   18 1
    34   17   56 1
    35   17   57 1
    36   18   23 ar
    37   18   19 ar
    38   19   20 ar
    39   19   58 1
    40   20   21 ar
    41   20   59 1
    42   21   22 ar
    43   21   24 1
    44   22   23 ar
    45   22   60 1
    46   23   61 1
    47   24   29 1
    48   24   25 1
    49   24   62 1
    50   25   26 1
    51   25   63 1
    52   25   64 1
    53   26   27 1
    54   26   28 2
    55   28   29 1
    56   29   30 2
    57   29   31 2
    58   32   33 1
    59   32   65 1
    60   33   34 2
    61   33   35 2
    62   33   36 1
    63   36   41 ar
    64   36   37 ar
    65   37   38 ar
    66   37   66 1
    67   38   39 ar
    68   38   67 1
    69   39   40 ar
    70   39   68 1
    71   40   41 ar
    72   40   42 1
    73   41   69 1
@<TRIPOS>MOLECULE
CHEMBL253500__3
   69    73     0     0     0
SMALL
USER_CHARGES

@<TRIPOS>ATOM
      1 C1         -0.0167    1.3781    0.0096 C.ar      1 <0>        -0.1278
      2 C2          1.1709    2.0855    0.0021 C.ar      1 <0>        -0.1179
      3 C3          2.3773    1.4107   -0.0130 C.ar      1 <0>        -0.1163
      4 C4          2.3960    0.0285   -0.0201 C.ar      1 <0>        -0.0781
      5 C5          1.2084   -0.6789   -0.0117 C.ar      1 <0>        -0.1196
      6 C6          0.0021   -0.0041    0.0020 C.ar      1 <0>        -0.1200
      7 C7          3.7112   -0.7071   -0.0376 C.3       1 <0>        -0.0828
      8 C8          4.1714   -0.9633    1.3989 C.3       1 <0>        -0.1032
      9 C9          5.5066   -1.7102    1.3812 C.3       1 <0>        -0.0328
     10 C10         5.9598   -1.9625    2.7961 C.2       1 <0>         0.0093
     11 C11         6.2793   -3.1599    3.3231 C.2       1 <0>        -0.0516
     12 N1          6.6354   -2.9369    4.6259 N.pl3     1 <0>        -0.5615
     13 C12         6.5210   -1.6101    4.8497 C.2       1 <0>         0.2068
     14 N2          6.1213   -1.0331    3.7496 N.2       1 <0>        -0.4663
     15 H1          6.9172   -3.6068    5.2682 H         1 <0>         0.4178
     16 C13         6.8122   -0.9109    6.1526 C.3       1 <0>         0.2525
     17 C14         7.8331    0.2039    5.9160 C.3       1 <0>        -0.0806
     18 C15         8.0323    0.9815    7.1914 C.ar      1 <0>        -0.0935
     19 C16         7.2356    2.0778    7.4641 C.ar      1 <0>        -0.1075
     20 C17         7.4184    2.7912    8.6340 C.ar      1 <0>        -0.1101
     21 C18         8.3974    2.4079    9.5314 C.ar      1 <0>        -0.0279
     22 C19         9.1935    1.3111    9.2592 C.ar      1 <0>        -0.0819
     23 C20         9.0079    0.5952    8.0913 C.ar      1 <0>        -0.0649
     24 C21         8.5973    3.1861   10.8064 C.3       1 <0>        -0.5469
     25 C22         8.6228    2.2528   12.0485 C.3       1 <0>        -0.1460
     26 C23        10.0518    1.9254   12.3615 C.2       1 <0>         0.4336
     27 O1         10.3452    0.8733   13.1537 O.3       1 <0>        -0.6613
     28 N3         10.9950    2.6450   11.8759 N.2       1 <0>        -0.9116
     29 S1         10.3100    3.8492   10.9346 S.o2      1 <0>         2.4529
     30 O2         10.9756    3.7845    9.6807 O.2       1 <0>        -0.9725
     31 O3         10.3416    5.0260   11.7303 O.2       1 <0>        -0.9967
     32 N4          7.3551   -1.8745    7.1133 N.pl3     1 <0>        -1.1171
     33 S2          6.9872   -1.7367    8.7220 S.o2      1 <0>         2.6668
     34 O4          7.6325   -2.8182    9.3802 O.2       1 <0>        -0.9474
     35 O5          7.2199   -0.3807    9.0772 O.2       1 <0>        -0.8913
     36 C24         5.2541   -2.0097    8.8853 C.ar      1 <0>        -0.6515
     37 C25         4.3757   -0.9456    8.7980 C.ar      1 <0>        -0.0280
     38 C26         3.0159   -1.1582    8.9259 C.ar      1 <0>        -0.1077
     39 C27         2.5328   -2.4352    9.1417 C.ar      1 <0>        -0.1003
     40 C28         3.4114   -3.5014    9.2293 C.ar      1 <0>         0.0785
     41 C29         4.7731   -3.2880    9.0949 C.ar      1 <0>        -0.0584
     42 F1          2.9404   -4.7499    9.4407 F         1 <0>        -0.1349
     43 H2         -0.9591    1.9053    0.0259 H         1 <0>         0.1190
     44 H3          1.1563    3.1654    0.0076 H         1 <0>         0.1209
     45 H4          3.3051    1.9634   -0.0196 H         1 <0>         0.1223
     46 H5          1.2231   -1.7588   -0.0176 H         1 <0>         0.1193
     47 H6         -0.9258   -0.5567    0.0082 H         1 <0>         0.1192
     48 H7          3.5884   -1.6586   -0.5549 H         1 <0>         0.0704
     49 H8          4.4573   -0.1052   -0.5563 H         1 <0>         0.0734
     50 H9          4.2941   -0.0118    1.9163 H         1 <0>         0.0737
     51 H10         3.4252   -1.5652    1.9176 H         1 <0>         0.0596
     52 H11         5.3838   -2.6617    0.8639 H         1 <0>         0.0728
     53 H12         6.2527   -1.1082    0.8625 H         1 <0>         0.0758
     54 H13         6.2583   -4.1129    2.8155 H         1 <0>         0.1762
     55 H14         5.8915   -0.4823    6.5486 H         1 <0>         0.1102
     56 H15         8.7821   -0.2326    5.6047 H         1 <0>         0.0793
     57 H16         7.4674    0.8721    5.1364 H         1 <0>         0.0984
     58 H17         6.4707    2.3773    6.7629 H         1 <0>         0.1146
     59 H18         6.7964    3.6481    8.8467 H         1 <0>         0.1135
     60 H19         9.9587    1.0118    9.9602 H         1 <0>         0.1192
     61 H20         9.6274   -0.2640    7.8804 H         1 <0>         0.1070
     62 H21         7.8526    3.9751   10.9112 H         1 <0>         0.1349
     63 H22         8.1670    2.7599   12.8989 H         1 <0>         0.1015
     64 H23         8.0746    1.3361   11.8310 H         1 <0>         0.1105
     65 H24         7.9301   -2.5932    6.8070 H         1 <0>         0.4147
     66 H25         4.7523    0.0526    8.6301 H         1 <0>         0.1535
     67 H26         2.3306   -0.3263    8.8575 H         1 <0>         0.1449
     68 H27         1.4704   -2.6010    9.2424 H         1 <0>         0.1433
     69 H28         5.4591   -4.1197    9.1586 H         1 <0>         0.1496
@<TRIPOS>BOND
     1    1    6 ar
     2    1    2 ar
     3    1   43 1
     4    2    3 ar
     5    2   44 1
     6    3    4 ar
     7    3   45 1
     8    4    5 ar
     9    4    7 1
    10    5    6 ar
    11    5   46 1
    12    6   47 1
    13    7    8 1
    14    7   48 1
    15    7   49 1
    16    8    9 1
    17    8   50 1
    18    8   51 1
    19    9   52 1
    20    9   53 1
    21    9   10 1
    22   10   14 1
    23   10   11 2
    24   11   54 1
    25   11   12 1
    26   12   13 1
    27   12   15 1
    28   13   16 1
    29   13   14 2
    30   16   17 1
    31   16   32 1
    32   16   55 1
    33   17   18 1
    34   17   56 1
    35   17   57 1
    36   18   23 ar
    37   18   19 ar
    38   19   20 ar
    39   19   58 1
    40   20   21 ar
    41   20   59 1
    42   21   22 ar
    43   21   24 1
    44   22   23 ar
    45   22   60 1
    46   23   61 1
    47   24   29 1
    48   24   25 1
    49   24   62 1
    50   25   26 1
    51   25   63 1
    52   25   64 1
    53   26   27 1
    54   26   28 2
    55   28   29 1
    56   29   30 2
    57   29   31 2
    58   32   33 1
    59   32   65 1
    60   33   34 2
    61   33   35 2
    62   33   36 1
    63   36   41 ar
    64   36   37 ar
    65   37   38 ar
    66   37   66 1
    67   38   39 ar
    68   38   67 1
    69   39   40 ar
    70   39   68 1
    71   40   41 ar
    72   40   42 1
    73   41   69 1
@<TRIPOS>MOLECULE
CHEMBL253500__4
   69    73     0     0     0
SMALL
USER_CHARGES

@<TRIPOS>ATOM
      1 C1         -0.0167    1.3781    0.0096 C.ar      1 <0>        -0.1263
      2 C2          1.1709    2.0855    0.0021 C.ar      1 <0>        -0.1189
      3 C3          2.3773    1.4107   -0.0130 C.ar      1 <0>        -0.1178
      4 C4          2.3960    0.0285   -0.0201 C.ar      1 <0>        -0.0812
      5 C5          1.2084   -0.6789   -0.0117 C.ar      1 <0>        -0.1174
      6 C6          0.0021   -0.0041    0.0020 C.ar      1 <0>        -0.1181
      7 C7          3.7112   -0.7071   -0.0376 C.3       1 <0>        -0.0809
      8 C8          4.1714   -0.9633    1.3989 C.3       1 <0>        -0.1103
      9 C9          5.5066   -1.7102    1.3812 C.3       1 <0>        -0.0433
     10 C10         5.9598   -1.9625    2.7961 C.2       1 <0>        -0.0132
     11 C11         6.6449   -1.1113    3.5834 C.2       1 <0>        -0.0238
     12 N1          6.8521   -1.7135    4.7639 N.2       1 <0>        -0.4673
     13 C12         6.3214   -2.9055    4.7379 C.2       1 <0>         0.1903
     14 N2          5.7492   -3.0985    3.5300 N.pl3     1 <0>        -0.5497
     15 H1          5.2787   -3.8944    3.2366 H         1 <0>         0.4188
     16 C13         6.3393   -3.8997    5.8703 C.3       1 <0>         0.2531
     17 C14         7.7834   -4.1411    6.3143 C.3       1 <0>        -0.0699
     18 C15         7.8126   -5.2246    7.3614 C.ar      1 <0>        -0.0946
     19 C16         7.6947   -4.8964    8.6990 C.ar      1 <0>        -0.1116
     20 C17         7.7214   -5.8902    9.6595 C.ar      1 <0>        -0.1113
     21 C18         7.8657   -7.2122    9.2823 C.ar      1 <0>        -0.0476
     22 C19         7.9827   -7.5405    7.9446 C.ar      1 <0>        -0.0983
     23 C20         7.9517   -6.5471    6.9839 C.ar      1 <0>        -0.1085
     24 C21         7.8959   -8.2955   10.3295 C.3       1 <0>        -0.5539
     25 C22         9.1143   -9.2411   10.1397 C.3       1 <0>        -0.1436
     26 C23         8.6639  -10.6469   10.4007 C.2       1 <0>         0.4312
     27 O1          9.5735  -11.6117   10.6497 O.3       1 <0>        -0.6595
     28 N3          7.4141  -10.9318   10.3877 N.2       1 <0>        -0.9129
     29 S1          6.5556   -9.5301   10.0666 S.o2      1 <0>         2.4523
     30 O2          5.5716   -9.4377   11.0877 O.2       1 <0>        -0.9680
     31 O3          6.1945   -9.6044    8.6943 O.2       1 <0>        -0.9803
     32 N4          5.5642   -3.3719    6.9959 N.pl3     1 <0>        -1.0969
     33 S2          3.9727   -3.7933    7.1752 S.o2      1 <0>         2.6934
     34 O4          3.5134   -3.1515    8.3569 O.2       1 <0>        -0.9532
     35 O5          3.3551   -3.5944    5.9110 O.2       1 <0>        -0.9546
     36 C24         3.9251   -5.5259    7.4920 C.ar      1 <0>        -0.6600
     37 C25         3.8359   -6.4186    6.4399 C.ar      1 <0>        -0.0391
     38 C26         3.7985   -7.7781    6.6870 C.ar      1 <0>        -0.1058
     39 C27         3.8496   -8.2466    7.9863 C.ar      1 <0>        -0.0580
     40 C28         3.9388   -7.3537    9.0405 C.ar      1 <0>         0.0682
     41 C29         3.9825   -5.9921    8.7915 C.ar      1 <0>        -0.0510
     42 F1          3.9884   -7.8105   10.3110 F         1 <0>        -0.1113
     43 H2         -0.9591    1.9053    0.0259 H         1 <0>         0.1199
     44 H3          1.1563    3.1654    0.0076 H         1 <0>         0.1207
     45 H4          3.3051    1.9634   -0.0196 H         1 <0>         0.1213
     46 H5          1.2231   -1.7588   -0.0176 H         1 <0>         0.1207
     47 H6         -0.9258   -0.5567    0.0082 H         1 <0>         0.1209
     48 H7          3.5884   -1.6586   -0.5549 H         1 <0>         0.0724
     49 H8          4.4573   -0.1052   -0.5563 H         1 <0>         0.0744
     50 H9          4.2941   -0.0118    1.9163 H         1 <0>         0.0703
     51 H10         3.4252   -1.5652    1.9176 H         1 <0>         0.0660
     52 H11         5.3838   -2.6617    0.8639 H         1 <0>         0.0712
     53 H12         6.2527   -1.1082    0.8625 H         1 <0>         0.0885
     54 H13         6.9704   -0.1180    3.3119 H         1 <0>         0.1681
     55 H14         5.9001   -4.8395    5.5357 H         1 <0>         0.0975
     56 H15         8.3807   -4.4491    5.4561 H         1 <0>         0.0891
     57 H16         8.1939   -3.2216    6.7314 H         1 <0>         0.0960
     58 H17         7.5819   -3.8635    8.9937 H         1 <0>         0.1233
     59 H18         7.6300   -5.6337   10.7046 H         1 <0>         0.1239
     60 H19         8.0958   -8.5734    7.6500 H         1 <0>         0.1335
     61 H20         8.0394   -6.8039    5.9385 H         1 <0>         0.1226
     62 H21         7.8644   -7.8769   11.3354 H         1 <0>         0.1376
     63 H22         9.4885   -9.1584    9.1193 H         1 <0>         0.1037
     64 H23         9.9024   -8.9710   10.8426 H         1 <0>         0.1059
     65 H24         5.9831   -2.7756    7.6360 H         1 <0>         0.4257
     66 H25         3.7952   -6.0534    5.4244 H         1 <0>         0.1380
     67 H26         3.7288   -8.4744    5.8644 H         1 <0>         0.1414
     68 H27         3.8196   -9.3088    8.1792 H         1 <0>         0.1499
     69 H28         4.0566   -5.2948    9.6128 H         1 <0>         0.1487
@<TRIPOS>BOND
     1    1    6 ar
     2    1    2 ar
     3    1   43 1
     4    2    3 ar
     5    2   44 1
     6    3    4 ar
     7    3   45 1
     8    4    5 ar
     9    4    7 1
    10    5    6 ar
    11    5   46 1
    12    6   47 1
    13    7    8 1
    14    7   48 1
    15    7   49 1
    16    8    9 1
    17    8   50 1
    18    8   51 1
    19    9   10 1
    20    9   52 1
    21    9   53 1
    22   10   14 1
    23   10   11 2
    24   11   12 1
    25   11   54 1
    26   12   13 2
    27   13   14 1
    28   13   16 1
    29   14   15 1
    30   16   17 1
    31   16   32 1
    32   16   55 1
    33   17   18 1
    34   17   56 1
    35   17   57 1
    36   18   23 ar
    37   18   19 ar
    38   19   20 ar
    39   19   58 1
    40   20   21 ar
    41   20   59 1
    42   21   22 ar
    43   21   24 1
    44   22   23 ar
    45   22   60 1
    46   23   61 1
    47   24   29 1
    48   24   25 1
    49   24   62 1
    50   25   26 1
    51   25   63 1
    52   25   64 1
    53   26   27 1
    54   26   28 2
    55   28   29 1
    56   29   30 2
    57   29   31 2
    58   32   33 1
    59   32   65 1
    60   33   34 2
    61   33   35 2
    62   33   36 1
    63   36   41 ar
    64   36   37 ar
    65   37   38 ar
    66   37   66 1
    67   38   39 ar
    68   38   67 1
    69   39   40 ar
    70   39   68 1
    71   40   41 ar
    72   40   42 1
    73   41   69 1
@<TRIPOS>MOLECULE
CHEMBL253500__5
   69    73     0     0     0
SMALL
USER_CHARGES

@<TRIPOS>ATOM
      1 C1         -0.0167    1.3781    0.0096 C.ar      1 <0>        -0.1278
      2 C2          1.1709    2.0855    0.0021 C.ar      1 <0>        -0.1184
      3 C3          2.3773    1.4107   -0.0130 C.ar      1 <0>        -0.1169
      4 C4          2.3960    0.0285   -0.0201 C.ar      1 <0>        -0.0783
      5 C5          1.2084   -0.6789   -0.0117 C.ar      1 <0>        -0.1191
      6 C6          0.0021   -0.0041    0.0020 C.ar      1 <0>        -0.1194
      7 C7          3.7112   -0.7071   -0.0376 C.3       1 <0>        -0.0820
      8 C8          4.1714   -0.9633    1.3989 C.3       1 <0>        -0.1046
      9 C9          5.5066   -1.7102    1.3812 C.3       1 <0>        -0.0310
     10 C10         5.9598   -1.9625    2.7961 C.2       1 <0>         0.0018
     11 C11         6.2793   -3.1599    3.3231 C.2       1 <0>        -0.0450
     12 N1          6.6354   -2.9369    4.6259 N.pl3     1 <0>        -0.5534
     13 C12         6.5210   -1.6101    4.8497 C.2       1 <0>         0.1926
     14 N2          6.1213   -1.0331    3.7496 N.2       1 <0>        -0.4620
     15 H1          6.9172   -3.6068    5.2682 H         1 <0>         0.4206
     16 C13         6.8122   -0.9109    6.1526 C.3       1 <0>         0.2528
     17 C14         7.8331    0.2039    5.9160 C.3       1 <0>        -0.0697
     18 C15         8.2166    0.8221    7.2358 C.ar      1 <0>        -0.0947
     19 C16         7.4983    1.8941    7.7316 C.ar      1 <0>        -0.1115
     20 C17         7.8500    2.4612    8.9422 C.ar      1 <0>        -0.1113
     21 C18         8.9199    1.9561    9.6572 C.ar      1 <0>        -0.0474
     22 C19         9.6377    0.8836    9.1618 C.ar      1 <0>        -0.0984
     23 C20         9.2832    0.3137    7.9532 C.ar      1 <0>        -0.1084
     24 C21         9.3040    2.5750   10.9764 C.3       1 <0>        -0.5540
     25 C22        10.8214    2.9051   11.0334 C.3       1 <0>        -0.1435
     26 C23        11.3274    2.5566   12.4008 C.2       1 <0>         0.4312
     27 O1         12.5024    3.0590   12.8338 O.3       1 <0>        -0.6597
     28 N3         10.6432    1.7816   13.1587 N.2       1 <0>        -0.9128
     29 S1          9.2461    1.3448   12.3449 S.o2      1 <0>         2.4524
     30 O2          8.1760    1.6259   13.2366 O.2       1 <0>        -0.9680
     31 O3          9.4784    0.0304   11.8573 O.2       1 <0>        -0.9803
     32 N4          5.5748   -0.3349    6.6849 N.pl3     1 <0>        -1.0967
     33 S2          4.6788   -1.1781    7.7933 S.o2      1 <0>         2.6936
     34 O4          3.5705   -0.3551    8.1303 O.2       1 <0>        -0.9530
     35 O5          4.5223   -2.4916    7.2742 O.2       1 <0>        -0.9551
     36 C24         5.6579   -1.3259    9.2507 C.ar      1 <0>        -0.6601
     37 C25         6.5038   -2.4083    9.4081 C.ar      1 <0>        -0.0392
     38 C26         7.2725   -2.5256   10.5509 C.ar      1 <0>        -0.1058
     39 C27         7.1961   -1.5610   11.5379 C.ar      1 <0>        -0.0580
     40 C28         6.3495   -0.4768   11.3813 C.ar      1 <0>         0.0682
     41 C29         5.5844   -0.3572   10.2333 C.ar      1 <0>        -0.0510
     42 F1          6.2737    0.4664   12.3456 F         1 <0>        -0.1114
     43 H2         -0.9591    1.9053    0.0259 H         1 <0>         0.1191
     44 H3          1.1563    3.1654    0.0076 H         1 <0>         0.1204
     45 H4          3.3051    1.9634   -0.0196 H         1 <0>         0.1215
     46 H5          1.2231   -1.7588   -0.0176 H         1 <0>         0.1199
     47 H6         -0.9258   -0.5567    0.0082 H         1 <0>         0.1196
     48 H7          3.5884   -1.6586   -0.5549 H         1 <0>         0.0705
     49 H8          4.4573   -0.1052   -0.5563 H         1 <0>         0.0724
     50 H9          4.2941   -0.0118    1.9163 H         1 <0>         0.0728
     51 H10         3.4252   -1.5652    1.9176 H         1 <0>         0.0608
     52 H11         5.3838   -2.6617    0.8639 H         1 <0>         0.0721
     53 H12         6.2527   -1.1082    0.8625 H         1 <0>         0.0736
     54 H13         6.2583   -4.1129    2.8155 H         1 <0>         0.1754
     55 H14         7.2161   -1.6278    6.8673 H         1 <0>         0.0978
     56 H15         8.7203   -0.2114    5.4379 H         1 <0>         0.0888
     57 H16         7.3959    0.9661    5.2711 H         1 <0>         0.0959
     58 H17         6.6624    2.2887    7.1730 H         1 <0>         0.1231
     59 H18         7.2892    3.2991    9.3292 H         1 <0>         0.1238
     60 H19        10.4737    0.4892    9.7202 H         1 <0>         0.1335
     61 H20         9.8417   -0.5265    7.5680 H         1 <0>         0.1225
     62 H21         8.6933    3.4504   11.1975 H         1 <0>         0.1376
     63 H22        11.3536    2.3192   10.2840 H         1 <0>         0.1037
     64 H23        10.9739    3.9677   10.8446 H         1 <0>         0.1059
     65 H24         5.2803    0.5404    6.3881 H         1 <0>         0.4256
     66 H25         6.5636   -3.1629    8.6378 H         1 <0>         0.1381
     67 H26         7.9328   -3.3715   10.6728 H         1 <0>         0.1414
     68 H27         7.7962   -1.6532   12.4310 H         1 <0>         0.1499
     69 H28         4.9269    0.4904   10.1081 H         1 <0>         0.1487
@<TRIPOS>BOND
     1    1    6 ar
     2    1    2 ar
     3    1   43 1
     4    2    3 ar
     5    2   44 1
     6    3    4 ar
     7    3   45 1
     8    4    5 ar
     9    4    7 1
    10    5    6 ar
    11    5   46 1
    12    6   47 1
    13    7    8 1
    14    7   48 1
    15    7   49 1
    16    8    9 1
    17    8   50 1
    18    8   51 1
    19    9   52 1
    20    9   53 1
    21    9   10 1
    22   10   14 1
    23   10   11 2
    24   11   54 1
    25   11   12 1
    26   12   13 1
    27   12   15 1
    28   13   16 1
    29   13   14 2
    30   16   17 1
    31   16   32 1
    32   16   55 1
    33   17   18 1
    34   17   56 1
    35   17   57 1
    36   18   23 ar
    37   18   19 ar
    38   19   20 ar
    39   19   58 1
    40   20   21 ar
    41   20   59 1
    42   21   22 ar
    43   21   24 1
    44   22   23 ar
    45   22   60 1
    46   23   61 1
    47   24   29 1
    48   24   25 1
    49   24   62 1
    50   25   26 1
    51   25   63 1
    52   25   64 1
    53   26   27 1
    54   26   28 2
    55   28   29 1
    56   29   30 2
    57   29   31 2
    58   32   33 1
    59   32   65 1
    60   33   34 2
    61   33   35 2
    62   33   36 1
    63   36   41 ar
    64   36   37 ar
    65   37   38 ar
    66   37   66 1
    67   38   39 ar
    68   38   67 1
    69   39   40 ar
    70   39   68 1
    71   40   41 ar
    72   40   42 1
    73   41   69 1
@<TRIPOS>MOLECULE
CHEMBL253500__6
   69    73     0     0     0
SMALL
USER_CHARGES

@<TRIPOS>ATOM
      1 C1         -0.0167    1.3781    0.0096 C.ar      1 <0>        -0.1264
      2 C2          1.1709    2.0855    0.0021 C.ar      1 <0>        -0.1189
      3 C3          2.3773    1.4107   -0.0130 C.ar      1 <0>        -0.1177
      4 C4          2.3960    0.0285   -0.0201 C.ar      1 <0>        -0.0809
      5 C5          1.2084   -0.6789   -0.0117 C.ar      1 <0>        -0.1175
      6 C6          0.0021   -0.0041    0.0020 C.ar      1 <0>        -0.1183
      7 C7          3.7112   -0.7071   -0.0376 C.3       1 <0>        -0.0812
      8 C8          4.1714   -0.9633    1.3989 C.3       1 <0>        -0.1099
      9 C9          5.5066   -1.7102    1.3812 C.3       1 <0>        -0.0434
     10 C10         5.9598   -1.9625    2.7961 C.2       1 <0>        -0.0132
     11 C11         6.6449   -1.1113    3.5834 C.2       1 <0>        -0.0235
     12 N1          6.8521   -1.7135    4.7639 N.2       1 <0>        -0.4666
     13 C12         6.3214   -2.9055    4.7379 C.2       1 <0>         0.1900
     14 N2          5.7492   -3.0985    3.5300 N.pl3     1 <0>        -0.5499
     15 H1          5.2787   -3.8944    3.2366 H         1 <0>         0.4186
     16 C13         6.3393   -3.8997    5.8703 C.3       1 <0>         0.2536
     17 C14         7.7834   -4.1411    6.3143 C.3       1 <0>        -0.0702
     18 C15         7.8126   -5.2246    7.3614 C.ar      1 <0>        -0.0955
     19 C16         7.6947   -4.8964    8.6990 C.ar      1 <0>        -0.1107
     20 C17         7.7214   -5.8902    9.6595 C.ar      1 <0>        -0.1117
     21 C18         7.8657   -7.2122    9.2823 C.ar      1 <0>        -0.0358
     22 C19         7.9827   -7.5405    7.9446 C.ar      1 <0>        -0.1012
     23 C20         7.9517   -6.5471    6.9839 C.ar      1 <0>        -0.1043
     24 C21         7.8959   -8.2955   10.3295 C.3       1 <0>        -0.5519
     25 C22         6.9009   -9.4416    9.9960 C.3       1 <0>        -0.1436
     26 C23         7.6500  -10.5186    9.2706 C.2       1 <0>         0.4338
     27 O1          6.9769  -11.4506    8.5645 O.3       1 <0>        -0.6599
     28 N3          8.9305  -10.5535    9.3212 N.2       1 <0>        -0.9077
     29 S1          9.4579   -9.2671   10.2550 S.o2      1 <0>         2.4552
     30 O2         10.4366   -8.5974    9.4720 O.2       1 <0>        -0.9702
     31 O3          9.7756   -9.8174   11.5260 O.2       1 <0>        -0.9920
     32 N4          5.5642   -3.3719    6.9959 N.pl3     1 <0>        -1.0953
     33 S2          3.9727   -3.7933    7.1752 S.o2      1 <0>         2.6932
     34 O4          3.5134   -3.1515    8.3569 O.2       1 <0>        -0.9528
     35 O5          3.3551   -3.5944    5.9110 O.2       1 <0>        -0.9530
     36 C24         3.9251   -5.5259    7.4920 C.ar      1 <0>        -0.6529
     37 C25         3.8359   -6.4186    6.4399 C.ar      1 <0>        -0.0381
     38 C26         3.7985   -7.7781    6.6870 C.ar      1 <0>        -0.1033
     39 C27         3.8496   -8.2466    7.9863 C.ar      1 <0>        -0.0892
     40 C28         3.9388   -7.3537    9.0405 C.ar      1 <0>         0.0904
     41 C29         3.9825   -5.9921    8.7915 C.ar      1 <0>        -0.0472
     42 F1          3.9884   -7.8105   10.3110 F         1 <0>        -0.1285
     43 H2         -0.9591    1.9053    0.0259 H         1 <0>         0.1198
     44 H3          1.1563    3.1654    0.0076 H         1 <0>         0.1207
     45 H4          3.3051    1.9634   -0.0196 H         1 <0>         0.1214
     46 H5          1.2231   -1.7588   -0.0176 H         1 <0>         0.1206
     47 H6         -0.9258   -0.5567    0.0082 H         1 <0>         0.1208
     48 H7          3.5884   -1.6586   -0.5549 H         1 <0>         0.0725
     49 H8          4.4573   -0.1052   -0.5563 H         1 <0>         0.0745
     50 H9          4.2941   -0.0118    1.9163 H         1 <0>         0.0702
     51 H10         3.4252   -1.5652    1.9176 H         1 <0>         0.0658
     52 H11         5.3838   -2.6617    0.8639 H         1 <0>         0.0713
     53 H12         6.2527   -1.1082    0.8625 H         1 <0>         0.0886
     54 H13         6.9704   -0.1180    3.3119 H         1 <0>         0.1682
     55 H14         5.9001   -4.8395    5.5357 H         1 <0>         0.0967
     56 H15         8.3807   -4.4491    5.4561 H         1 <0>         0.0900
     57 H16         8.1939   -3.2216    6.7314 H         1 <0>         0.0965
     58 H17         7.5819   -3.8635    8.9937 H         1 <0>         0.1225
     59 H18         7.6300   -5.6337   10.7046 H         1 <0>         0.1224
     60 H19         8.0958   -8.5734    7.6500 H         1 <0>         0.1276
     61 H20         8.0394   -6.8039    5.9385 H         1 <0>         0.1225
     62 H21         7.7227   -7.8897   11.3262 H         1 <0>         0.1383
     63 H22         6.4802   -9.8433   10.9178 H         1 <0>         0.1047
     64 H23         6.0998   -9.0605    9.3626 H         1 <0>         0.1013
     65 H24         5.9831   -2.7756    7.6360 H         1 <0>         0.4264
     66 H25         3.7952   -6.0534    5.4244 H         1 <0>         0.1403
     67 H26         3.7288   -8.4744    5.8644 H         1 <0>         0.1441
     68 H27         3.8196   -9.3088    8.1792 H         1 <0>         0.1501
     69 H28         4.0566   -5.2948    9.6128 H         1 <0>         0.1499
@<TRIPOS>BOND
     1    1    6 ar
     2    1    2 ar
     3    1   43 1
     4    2    3 ar
     5    2   44 1
     6    3    4 ar
     7    3   45 1
     8    4    5 ar
     9    4    7 1
    10    5    6 ar
    11    5   46 1
    12    6   47 1
    13    7    8 1
    14    7   48 1
    15    7   49 1
    16    8    9 1
    17    8   50 1
    18    8   51 1
    19    9   10 1
    20    9   52 1
    21    9   53 1
    22   10   14 1
    23   10   11 2
    24   11   12 1
    25   11   54 1
    26   12   13 2
    27   13   14 1
    28   13   16 1
    29   14   15 1
    30   16   17 1
    31   16   32 1
    32   16   55 1
    33   17   18 1
    34   17   56 1
    35   17   57 1
    36   18   23 ar
    37   18   19 ar
    38   19   20 ar
    39   19   58 1
    40   20   21 ar
    41   20   59 1
    42   21   22 ar
    43   21   24 1
    44   22   23 ar
    45   22   60 1
    46   23   61 1
    47   24   29 1
    48   24   25 1
    49   24   62 1
    50   25   26 1
    51   25   63 1
    52   25   64 1
    53   26   27 1
    54   26   28 2
    55   28   29 1
    56   29   30 2
    57   29   31 2
    58   32   33 1
    59   32   65 1
    60   33   34 2
    61   33   35 2
    62   33   36 1
    63   36   41 ar
    64   36   37 ar
    65   37   38 ar
    66   37   66 1
    67   38   39 ar
    68   38   67 1
    69   39   40 ar
    70   39   68 1
    71   40   41 ar
    72   40   42 1
    73   41   69 1
@<TRIPOS>MOLECULE
CHEMBL253500__7
   69    73     0     0     0
SMALL
USER_CHARGES

@<TRIPOS>ATOM
      1 C1         -0.0167    1.3781    0.0096 C.ar      1 <0>        -0.1280
      2 C2          1.1709    2.0855    0.0021 C.ar      1 <0>        -0.1183
      3 C3          2.3773    1.4107   -0.0130 C.ar      1 <0>        -0.1168
      4 C4          2.3960    0.0285   -0.0201 C.ar      1 <0>        -0.0780
      5 C5          1.2084   -0.6789   -0.0117 C.ar      1 <0>        -0.1192
      6 C6          0.0021   -0.0041    0.0020 C.ar      1 <0>        -0.1196
      7 C7          3.7112   -0.7071   -0.0376 C.3       1 <0>        -0.0822
      8 C8          4.1714   -0.9633    1.3989 C.3       1 <0>        -0.1044
      9 C9          5.5066   -1.7102    1.3812 C.3       1 <0>        -0.0312
     10 C10         5.9598   -1.9625    2.7961 C.2       1 <0>         0.0021
     11 C11         6.2793   -3.1599    3.3231 C.2       1 <0>        -0.0449
     12 N1          6.6354   -2.9369    4.6259 N.pl3     1 <0>        -0.5536
     13 C12         6.5210   -1.6101    4.8497 C.2       1 <0>         0.1924
     14 N2          6.1213   -1.0331    3.7496 N.2       1 <0>        -0.4614
     15 H1          6.9172   -3.6068    5.2682 H         1 <0>         0.4204
     16 C13         6.8122   -0.9109    6.1526 C.3       1 <0>         0.2533
     17 C14         7.8331    0.2039    5.9160 C.3       1 <0>        -0.0699
     18 C15         8.2166    0.8221    7.2358 C.ar      1 <0>        -0.0955
     19 C16         7.4983    1.8941    7.7316 C.ar      1 <0>        -0.1106
     20 C17         7.8500    2.4612    8.9422 C.ar      1 <0>        -0.1117
     21 C18         8.9199    1.9561    9.6572 C.ar      1 <0>        -0.0357
     22 C19         9.6377    0.8836    9.1618 C.ar      1 <0>        -0.1013
     23 C20         9.2832    0.3137    7.9532 C.ar      1 <0>        -0.1043
     24 C21         9.3040    2.5750   10.9764 C.3       1 <0>        -0.5519
     25 C22         9.4525    1.5018   12.0903 C.3       1 <0>        -0.1435
     26 C23        10.8974    1.1120   12.1782 C.2       1 <0>         0.4338
     27 O1         11.2513   -0.0313   12.8010 O.3       1 <0>        -0.6599
     28 N3         11.7966    1.8653   11.6612 N.2       1 <0>        -0.9076
     29 S1         11.0410    3.1849   10.9590 S.o2      1 <0>         2.4553
     30 O2         11.5421    3.2551    9.6312 O.2       1 <0>        -0.9703
     31 O3         11.2120    4.2592   11.8733 O.2       1 <0>        -0.9919
     32 N4          5.5748   -0.3349    6.6849 N.pl3     1 <0>        -1.0951
     33 S2          4.6788   -1.1781    7.7933 S.o2      1 <0>         2.6935
     34 O4          3.5705   -0.3551    8.1303 O.2       1 <0>        -0.9525
     35 O5          4.5223   -2.4916    7.2742 O.2       1 <0>        -0.9535
     36 C24         5.6579   -1.3259    9.2507 C.ar      1 <0>        -0.6530
     37 C25         6.5038   -2.4083    9.4081 C.ar      1 <0>        -0.0382
     38 C26         7.2725   -2.5256   10.5509 C.ar      1 <0>        -0.1034
     39 C27         7.1961   -1.5610   11.5379 C.ar      1 <0>        -0.0892
     40 C28         6.3495   -0.4768   11.3813 C.ar      1 <0>         0.0904
     41 C29         5.5844   -0.3572   10.2333 C.ar      1 <0>        -0.0472
     42 F1          6.2737    0.4664   12.3456 F         1 <0>        -0.1285
     43 H2         -0.9591    1.9053    0.0259 H         1 <0>         0.1189
     44 H3          1.1563    3.1654    0.0076 H         1 <0>         0.1204
     45 H4          3.3051    1.9634   -0.0196 H         1 <0>         0.1217
     46 H5          1.2231   -1.7588   -0.0176 H         1 <0>         0.1198
     47 H6         -0.9258   -0.5567    0.0082 H         1 <0>         0.1194
     48 H7          3.5884   -1.6586   -0.5549 H         1 <0>         0.0705
     49 H8          4.4573   -0.1052   -0.5563 H         1 <0>         0.0726
     50 H9          4.2941   -0.0118    1.9163 H         1 <0>         0.0728
     51 H10         3.4252   -1.5652    1.9176 H         1 <0>         0.0606
     52 H11         5.3838   -2.6617    0.8639 H         1 <0>         0.0721
     53 H12         6.2527   -1.1082    0.8625 H         1 <0>         0.0739
     54 H13         6.2583   -4.1129    2.8155 H         1 <0>         0.1755
     55 H14         7.2161   -1.6278    6.8673 H         1 <0>         0.0970
     56 H15         8.7203   -0.2114    5.4379 H         1 <0>         0.0898
     57 H16         7.3959    0.9661    5.2711 H         1 <0>         0.0963
     58 H17         6.6624    2.2887    7.1730 H         1 <0>         0.1223
     59 H18         7.2892    3.2991    9.3292 H         1 <0>         0.1223
     60 H19        10.4737    0.4892    9.7202 H         1 <0>         0.1275
     61 H20         9.8417   -0.5265    7.5680 H         1 <0>         0.1225
     62 H21         8.6057    3.3605   11.2652 H         1 <0>         0.1382
     63 H22         9.1242    1.9141   13.0444 H         1 <0>         0.1047
     64 H23         8.8504    0.6278   11.8416 H         1 <0>         0.1013
     65 H24         5.2803    0.5404    6.3881 H         1 <0>         0.4264
     66 H25         6.5636   -3.1629    8.6378 H         1 <0>         0.1404
     67 H26         7.9328   -3.3715   10.6728 H         1 <0>         0.1442
     68 H27         7.7962   -1.6532   12.4310 H         1 <0>         0.1500
     69 H28         4.9269    0.4904   10.1081 H         1 <0>         0.1499
@<TRIPOS>BOND
     1    1    6 ar
     2    1    2 ar
     3    1   43 1
     4    2    3 ar
     5    2   44 1
     6    3    4 ar
     7    3   45 1
     8    4    5 ar
     9    4    7 1
    10    5    6 ar
    11    5   46 1
    12    6   47 1
    13    7    8 1
    14    7   48 1
    15    7   49 1
    16    8    9 1
    17    8   50 1
    18    8   51 1
    19    9   52 1
    20    9   53 1
    21    9   10 1
    22   10   14 1
    23   10   11 2
    24   11   54 1
    25   11   12 1
    26   12   13 1
    27   12   15 1
    28   13   16 1
    29   13   14 2
    30   16   17 1
    31   16   32 1
    32   16   55 1
    33   17   18 1
    34   17   56 1
    35   17   57 1
    36   18   23 ar
    37   18   19 ar
    38   19   20 ar
    39   19   58 1
    40   20   21 ar
    41   20   59 1
    42   21   22 ar
    43   21   24 1
    44   22   23 ar
    45   22   60 1
    46   23   61 1
    47   24   29 1
    48   24   25 1
    49   24   62 1
    50   25   26 1
    51   25   63 1
    52   25   64 1
    53   26   27 1
    54   26   28 2
    55   28   29 1
    56   29   30 2
    57   29   31 2
    58   32   33 1
    59   32   65 1
    60   33   34 2
    61   33   35 2
    62   33   36 1
    63   36   41 ar
    64   36   37 ar
    65   37   38 ar
    66   37   66 1
    67   38   39 ar
    68   38   67 1
    69   39   40 ar
    70   39   68 1
    71   40   41 ar
    72   40   42 1
    73   41   69 1
@<TRIPOS>MOLECULE
CHEMBL56948
   64    68     0     0     0
SMALL
USER_CHARGES

@<TRIPOS>ATOM
      1 C1         -0.0187    1.5258    0.0104 C.3       1 <0>        -0.1874
      2 C2          0.0021   -0.0041    0.0020 C.3       1 <0>         0.1176
      3 C3          0.7421   -0.5109    1.2415 C.3       1 <0>        -0.1874
      4 C4         -1.4333   -0.5336    0.0129 C.3       1 <0>        -0.1410
      5 O1          0.6709   -0.4649   -1.1737 O.3       1 <0>        -0.3417
      6 C5          1.9483   -0.0860   -1.3362 C.2       1 <0>         0.4661
      7 O2          2.4810    0.6138   -0.5076 O.2       1 <0>        -0.4750
      8 C6          2.7182   -0.5334   -2.5520 C.3       1 <0>         0.0665
      9 O3          4.0447   -0.0047   -2.4971 O.3       1 <0>        -0.2930
     10 C7          4.8761   -0.3161   -3.5260 C.ar      1 <0>         0.1305
     11 C8          4.4227   -1.1094   -4.5699 C.ar      1 <0>        -0.2093
     12 C9          5.2696   -1.4241   -5.6149 C.ar      1 <0>        -0.0654
     13 C10         6.5683   -0.9496   -5.6207 C.ar      1 <0>        -0.1207
     14 C11         7.0227   -0.1592   -4.5813 C.ar      1 <0>        -0.0666
     15 C12         6.1778    0.1635   -3.5370 C.ar      1 <0>        -0.1404
     16 C13         7.4902   -1.2949   -6.7617 C.3       1 <0>        -0.0332
     17 C14         7.3699   -0.2482   -7.8392 C.2       1 <0>        -0.1681
     18 C15         8.2632    0.7931   -7.8646 C.2       1 <0>         0.2286
     19 C16         8.1896    1.8422   -8.8968 C.ar      1 <0>        -0.0430
     20 C17         9.1050    2.8908   -8.9068 C.ar      1 <0>        -0.0866
     21 C18         9.0227    3.8692   -9.8843 C.ar      1 <0>        -0.0844
     22 C19         8.0376    3.8150  -10.8524 C.ar      1 <0>        -0.1063
     23 C20         7.1176    2.7788  -10.8586 C.ar      1 <0>        -0.0543
     24 C21         7.1874    1.7891   -9.8846 C.ar      1 <0>        -0.1416
     25 C22         6.2200    0.6720   -9.8659 C.2       1 <0>         0.3605
     26 O4          5.3439    0.5944  -10.7017 O.2       1 <0>        -0.3790
     27 C23         6.3518   -0.3641   -8.7954 C.2       1 <0>         0.3634
     28 O5          5.5760   -1.3009   -8.7522 O.2       1 <0>        -0.3779
     29 N1          9.2503    0.8594   -6.9036 N.pl3     1 <0>        -0.4557
     30 C24        10.3760    0.0763   -6.8736 C.2       1 <0>         0.0515
     31 C25        11.1272    0.3962   -5.8093 C.2       1 <0>        -0.1803
     32 C26        10.4293    1.4718   -5.0966 C.ar      1 <0>        -0.1026
     33 C27         9.2569    1.7287   -5.8297 C.ar      1 <0>         0.1049
     34 C28         8.3817    2.7161   -5.3952 C.ar      1 <0>        -0.1225
     35 C29         8.6687    3.4365   -4.2547 C.ar      1 <0>        -0.0915
     36 C30         9.8263    3.1858   -3.5329 C.ar      1 <0>        -0.1380
     37 C31        10.7038    2.2055   -3.9425 C.ar      1 <0>        -0.0701
     38 H1          1.0039    1.9031    0.0027 H         1 <0>         0.0836
     39 H2         -0.5459    1.8868   -0.8726 H         1 <0>         0.0627
     40 H3         -0.5289    1.8773    0.9072 H         1 <0>         0.0741
     41 H4          0.2319   -0.1594    2.1383 H         1 <0>         0.0741
     42 H5          0.7568   -1.6008    1.2356 H         1 <0>         0.0629
     43 H6          1.7647   -0.1336    1.2338 H         1 <0>         0.0837
     44 H7         -1.9605   -0.1726   -0.8702 H         1 <0>         0.0680
     45 H8         -1.4185   -1.6235    0.0069 H         1 <0>         0.0681
     46 H9         -1.9435   -0.1821    0.9097 H         1 <0>         0.0813
     47 H10         2.7617   -1.6223   -2.5741 H         1 <0>         0.1069
     48 H11         2.2197   -0.1713   -3.4512 H         1 <0>         0.1062
     49 H12         3.4086   -1.4808   -4.5655 H         1 <0>         0.1301
     50 H13         4.9172   -2.0416   -6.4279 H         1 <0>         0.1319
     51 H14         8.0376    0.2099   -4.5879 H         1 <0>         0.1332
     52 H15         6.5318    0.7845   -2.7275 H         1 <0>         0.1331
     53 H16         8.5182   -1.3284   -6.4009 H         1 <0>         0.0927
     54 H17         7.2161   -2.2683   -7.1685 H         1 <0>         0.0956
     55 H18         9.8777    2.9418   -8.1540 H         1 <0>         0.1375
     56 H19         9.7343    4.6816   -9.8897 H         1 <0>         0.1387
     57 H20         7.9845    4.5847  -11.6081 H         1 <0>         0.1406
     58 H21         6.3492    2.7403  -11.6166 H         1 <0>         0.1452
     59 H22        10.6211   -0.6853   -7.5991 H         1 <0>         0.1730
     60 H23        12.0684   -0.0536   -5.5296 H         1 <0>         0.1547
     61 H24         7.4777    2.9196   -5.9500 H         1 <0>         0.1168
     62 H25         7.9858    4.2035   -3.9206 H         1 <0>         0.1270
     63 H26        10.0380    3.7579   -2.6417 H         1 <0>         0.1257
     64 H27        11.6050    2.0138   -3.3790 H         1 <0>         0.1261
@<TRIPOS>BOND
     1    1    2 1
     2    1   38 1
     3    1   39 1
     4    1   40 1
     5    2    3 1
     6    2    4 1
     7    2    5 1
     8    3   41 1
     9    3   42 1
    10    3   43 1
    11    4   44 1
    12    4   45 1
    13    4   46 1
    14    5    6 1
    15    6    7 2
    16    6    8 1
    17    8    9 1
    18    8   47 1
    19    8   48 1
    20    9   10 1
    21   10   15 ar
    22   10   11 ar
    23   11   12 ar
    24   11   49 1
    25   12   13 ar
    26   12   50 1
    27   13   14 ar
    28   13   16 1
    29   14   15 ar
    30   14   51 1
    31   15   52 1
    32   16   17 1
    33   16   53 1
    34   16   54 1
    35   17   27 1
    36   17   18 2
    37   18   19 1
    38   18   29 1
    39   19   24 ar
    40   19   20 ar
    41   20   21 ar
    42   20   55 1
    43   21   22 ar
    44   21   56 1
    45   22   23 ar
    46   22   57 1
    47   23   24 ar
    48   23   58 1
    49   24   25 1
    50   25   26 2
    51   25   27 1
    52   27   28 2
    53   29   33 1
    54   29   30 1
    55   30   31 2
    56   30   59 1
    57   31   32 1
    58   31   60 1
    59   32   37 ar
    60   32   33 ar
    61   33   34 ar
    62   34   35 ar
    63   34   61 1
    64   35   36 ar
    65   35   62 1
    66   36   37 ar
    67   36   63 1
    68   37   64 1
@<TRIPOS>MOLECULE
CHEMBL26100
   55    59     0     0     0
SMALL
USER_CHARGES

@<TRIPOS>ATOM
      1 C1         -0.0187    1.5258    0.0104 C.3       1 <0>        -0.1545
      2 C2          0.0021   -0.0041    0.0020 C.3       1 <0>        -0.1247
      3 C3         -1.4333   -0.5336    0.0129 C.3       1 <0>        -0.1180
      4 C4         -1.4126   -2.0635    0.0045 C.3       1 <0>        -0.0514
      5 C5         -2.8264   -2.5851    0.0152 C.2       1 <0>         0.0484
      6 C6         -3.5547   -2.8497   -1.0780 C.2       1 <0>        -0.1713
      7 C7         -4.8548   -3.3318   -0.5967 C.ar      1 <0>        -0.1173
      8 C8         -6.0262   -3.7615   -1.2184 C.ar      1 <0>        -0.0734
      9 C9         -7.0914   -4.1574   -0.4578 C.ar      1 <0>        -0.1334
     10 C10        -7.0130   -4.1334    0.9272 C.ar      1 <0>        -0.0949
     11 C11        -5.8630   -3.7116    1.5596 C.ar      1 <0>        -0.1052
     12 C12        -4.7690   -3.3056    0.8054 C.ar      1 <0>         0.0514
     13 O1         -3.5378   -2.8579    1.1229 O.3       1 <0>        -0.1895
     14 C13        -3.1252   -2.6855   -2.5132 C.3       1 <0>        -0.0098
     15 C14        -2.4898   -3.9636   -2.9968 C.ar      1 <0>        -0.0739
     16 C15        -1.1172   -4.1491   -2.8418 C.ar      1 <0>        -0.0862
     17 C16        -0.5123   -5.2914   -3.2675 C.ar      1 <0>        -0.1145
     18 C17        -1.2804   -6.3012   -3.8730 C.ar      1 <0>         0.0027
     19 C18        -2.6765   -6.1127   -4.0307 C.ar      1 <0>        -0.0687
     20 C19        -3.2660   -4.9214   -3.5732 C.ar      1 <0>        -0.0835
     21 C20        -3.4477   -7.1203   -4.6345 C.ar      1 <0>        -0.0364
     22 C21        -2.8516   -8.2656   -5.0621 C.ar      1 <0>        -0.1953
     23 C22        -1.4757   -8.4599   -4.9101 C.ar      1 <0>         0.1660
     24 C23        -0.6897   -7.4935   -4.3240 C.ar      1 <0>        -0.1163
     25 Br1         1.1705   -7.7696   -4.1255 Br        1 <0>        -0.0207
     26 O2         -0.9076   -9.6150   -5.3462 O.3       1 <0>        -0.3140
     27 C24        -1.7756  -10.5787   -5.9462 C.3       1 <0>         0.3025
     28 N1         -0.9969  -11.7509   -6.3531 N.pl3     1 <0>        -0.3215
     29 C25         0.3284  -11.9247   -6.1945 C.2       1 <0>         0.1861
     30 N2          0.6157  -13.1024   -6.6930 N.2       1 <0>        -0.3031
     31 N3         -0.4761  -13.6247   -7.1347 N.2       1 <0>        -0.0604
     32 N4         -1.4534  -12.8131   -6.9259 N.2       1 <0>        -0.0839
     33 H1          1.0039    1.9031    0.0027 H         1 <0>         0.0563
     34 H2         -0.5459    1.8868   -0.8726 H         1 <0>         0.0548
     35 H3         -0.5289    1.8773    0.9072 H         1 <0>         0.0546
     36 H4          0.5123   -0.3556   -0.8948 H         1 <0>         0.0645
     37 H5          0.5293   -0.3651    0.8851 H         1 <0>         0.0647
     38 H6         -1.9435   -0.1821    0.9097 H         1 <0>         0.0686
     39 H7         -1.9605   -0.1726   -0.8702 H         1 <0>         0.0690
     40 H8         -0.9024   -2.4150   -0.8923 H         1 <0>         0.0968
     41 H9         -0.8854   -2.4246    0.8875 H         1 <0>         0.0872
     42 H10        -6.0923   -3.7813   -2.2962 H         1 <0>         0.1241
     43 H11        -7.9995   -4.4905   -0.9382 H         1 <0>         0.1292
     44 H12        -7.8619   -4.4481    1.5160 H         1 <0>         0.1352
     45 H13        -5.8127   -3.6965    2.6383 H         1 <0>         0.1317
     46 H14        -3.9951   -2.4566   -3.1288 H         1 <0>         0.0868
     47 H15        -2.4042   -1.8712   -2.5858 H         1 <0>         0.0877
     48 H16        -0.5247   -3.3747   -2.3773 H         1 <0>         0.1292
     49 H17         0.5523   -5.4214   -3.1413 H         1 <0>         0.1385
     50 H18        -4.3291   -4.7653   -3.6821 H         1 <0>         0.1316
     51 H19        -4.5121   -6.9857   -4.7586 H         1 <0>         0.1435
     52 H20        -3.4499   -9.0362   -5.5254 H         1 <0>         0.1412
     53 H21        -2.5367  -10.8801   -5.2264 H         1 <0>         0.1157
     54 H22        -2.2561  -10.1402   -6.8208 H         1 <0>         0.1161
     55 H23         1.0207  -11.2286   -5.7445 H         1 <0>         0.2378
@<TRIPOS>BOND
     1    1    2 1
     2    1   33 1
     3    1   34 1
     4    1   35 1
     5    2    3 1
     6    2   36 1
     7    2   37 1
     8    3    4 1
     9    3   38 1
    10    3   39 1
    11    4    5 1
    12    4   40 1
    13    4   41 1
    14    5   13 1
    15    5    6 2
    16    6    7 1
    17    6   14 1
    18    7   12 ar
    19    7    8 ar
    20    8    9 ar
    21    8   42 1
    22    9   10 ar
    23    9   43 1
    24   10   11 ar
    25   10   44 1
    26   11   12 ar
    27   11   45 1
    28   12   13 1
    29   14   15 1
    30   14   46 1
    31   14   47 1
    32   15   20 ar
    33   15   16 ar
    34   16   17 ar
    35   16   48 1
    36   17   18 ar
    37   17   49 1
    38   18   24 ar
    39   18   19 ar
    40   19   20 ar
    41   19   21 ar
    42   20   50 1
    43   21   22 ar
    44   21   51 1
    45   22   23 ar
    46   22   52 1
    47   23   24 ar
    48   23   26 1
    49   24   25 1
    50   26   27 1
    51   27   28 1
    52   27   53 1
    53   27   54 1
    54   28   32 1
    55   28   29 1
    56   29   30 2
    57   29   55 1
    58   30   31 1
    59   31   32 2
@<TRIPOS>MOLECULE
CHEMBL403746
   66    70     0     0     0
SMALL
USER_CHARGES

@<TRIPOS>ATOM
      1 C1         -0.0167    1.3781    0.0096 C.ar      1 <0>        -0.1244
      2 C2          1.1709    2.0855    0.0021 C.ar      1 <0>        -0.1180
      3 C3          2.3773    1.4107   -0.0130 C.ar      1 <0>        -0.1175
      4 C4          2.3960    0.0285   -0.0201 C.ar      1 <0>        -0.0834
      5 C5          1.2084   -0.6789   -0.0117 C.ar      1 <0>        -0.1156
      6 C6          0.0021   -0.0041    0.0020 C.ar      1 <0>        -0.1182
      7 C7          3.7112   -0.7071   -0.0376 C.3       1 <0>        -0.0762
      8 C8          4.1714   -0.9633    1.3989 C.3       1 <0>        -0.0371
      9 C9          5.4865   -1.6989    1.3815 C.2       1 <0>        -0.0200
     10 C10         5.6604   -3.0299    1.2729 C.2       1 <0>        -0.0155
     11 N1          6.9780   -3.2796    1.2974 N.2       1 <0>        -0.4715
     12 C11         7.6272   -2.1539    1.4170 C.2       1 <0>         0.2055
     13 N2          6.7340   -1.1422    1.4670 N.pl3     1 <0>        -0.5577
     14 H1          6.9383   -0.1976    1.5500 H         1 <0>         0.4164
     15 C12         9.1256   -2.0067    1.4828 C.3       1 <0>         0.2517
     16 C13         9.6745   -2.8788    2.6138 C.3       1 <0>        -0.0803
     17 C14        11.1806   -2.8278    2.6017 C.ar      1 <0>        -0.0933
     18 C15        11.8971   -3.7426    1.8530 C.ar      1 <0>        -0.1084
     19 C16        13.2786   -3.6958    1.8419 C.ar      1 <0>        -0.1095
     20 C17        13.9436   -2.7339    2.5792 C.ar      1 <0>        -0.0390
     21 C18        13.2270   -1.8186    3.3272 C.ar      1 <0>        -0.0806
     22 C19        11.8454   -1.8627    3.3349 C.ar      1 <0>        -0.0689
     23 C20        15.4497   -2.6836    2.5679 C.3       1 <0>        -0.5479
     24 C21        16.0314   -2.6327    4.0080 C.3       1 <0>        -0.1439
     25 C22        17.1829   -1.6730    4.0164 C.2       1 <0>         0.4320
     26 O1         18.0768   -1.7004    5.0267 O.3       1 <0>        -0.6644
     27 N3         17.3184   -0.8267    3.0632 N.2       1 <0>        -0.9158
     28 S1         16.0691   -1.0557    1.9714 S.o2      1 <0>         2.4593
     29 O2         16.6875   -1.1824    0.6983 O.2       1 <0>        -0.9885
     30 O3         15.1287   -0.0246    2.2390 O.2       1 <0>        -0.9732
     31 N4          9.4679   -0.6051    1.7367 N.pl3     1 <0>        -1.1187
     32 S2         10.8249    0.0528    1.0526 S.o2      1 <0>         2.6667
     33 O4         10.8665    1.4134    1.4604 O.2       1 <0>        -0.9457
     34 O5         11.8894   -0.8526    1.3103 O.2       1 <0>        -0.8875
     35 C23        10.5789    0.0573   -0.6921 C.ar      1 <0>        -0.6521
     36 C24        10.9691   -1.0328   -1.4479 C.ar      1 <0>        -0.0288
     37 C25        10.7767   -1.0307   -2.8167 C.ar      1 <0>        -0.1070
     38 C26        10.1944    0.0616   -3.4316 C.ar      1 <0>        -0.1001
     39 C27         9.8033    1.1537   -2.6759 C.ar      1 <0>         0.0784
     40 C28         9.9910    1.1479   -1.3039 C.ar      1 <0>        -0.0588
     41 F1          9.2344    2.2221   -3.2759 F         1 <0>        -0.1351
     42 H2         -0.9591    1.9053    0.0259 H         1 <0>         0.1206
     43 H3          1.1563    3.1654    0.0076 H         1 <0>         0.1214
     44 H4          3.3051    1.9634   -0.0196 H         1 <0>         0.1200
     45 H5          1.2231   -1.7588   -0.0176 H         1 <0>         0.1230
     46 H6         -0.9258   -0.5567    0.0082 H         1 <0>         0.1218
     47 H7          3.5884   -1.6586   -0.5549 H         1 <0>         0.0795
     48 H8          4.4573   -0.1052   -0.5563 H         1 <0>         0.0708
     49 H9          4.2941   -0.0118    1.9163 H         1 <0>         0.0722
     50 H10         3.4252   -1.5652    1.9176 H         1 <0>         0.0909
     51 H11         4.8764   -3.7671    1.1820 H         1 <0>         0.1709
     52 H12         9.5635   -2.3219    0.5357 H         1 <0>         0.1109
     53 H13         9.3060   -2.5078    3.5702 H         1 <0>         0.0787
     54 H14         9.3446   -3.9079    2.4719 H         1 <0>         0.0983
     55 H15        11.3776   -4.4941    1.2770 H         1 <0>         0.1156
     56 H16        13.8385   -4.4110    1.2575 H         1 <0>         0.1155
     57 H17        13.7465   -1.0673    3.9035 H         1 <0>         0.1249
     58 H18        11.2854   -1.1452    3.9163 H         1 <0>         0.1075
     59 H19        15.8706   -3.5084    1.9929 H         1 <0>         0.1361
     60 H20        15.2637   -2.2920    4.7028 H         1 <0>         0.1038
     61 H21        16.3769   -3.6243    4.3002 H         1 <0>         0.1046
     62 H22         8.8998   -0.0625    2.3056 H         1 <0>         0.4137
     63 H23        11.4249   -1.8865   -0.9684 H         1 <0>         0.1532
     64 H24        11.0819   -1.8828   -3.4060 H         1 <0>         0.1458
     65 H25        10.0448    0.0633   -4.5011 H         1 <0>         0.1437
     66 H26         9.6822    1.9974   -0.7128 H         1 <0>         0.1493
@<TRIPOS>BOND
     1    1    6 ar
     2    1    2 ar
     3    1   42 1
     4    2    3 ar
     5    2   43 1
     6    3    4 ar
     7    3   44 1
     8    4    5 ar
     9    4    7 1
    10    5    6 ar
    11    5   45 1
    12    6   46 1
    13    7    8 1
    14    7   47 1
    15    7   48 1
    16    8    9 1
    17    8   49 1
    18    8   50 1
    19    9   13 1
    20    9   10 2
    21   10   11 1
    22   10   51 1
    23   11   12 2
    24   12   13 1
    25   12   15 1
    26   13   14 1
    27   15   16 1
    28   15   31 1
    29   15   52 1
    30   16   17 1
    31   16   53 1
    32   16   54 1
    33   17   22 ar
    34   17   18 ar
    35   18   19 ar
    36   18   55 1
    37   19   20 ar
    38   19   56 1
    39   20   21 ar
    40   20   23 1
    41   21   22 ar
    42   21   57 1
    43   22   58 1
    44   23   28 1
    45   23   24 1
    46   23   59 1
    47   24   25 1
    48   24   60 1
    49   24   61 1
    50   25   26 1
    51   25   27 2
    52   27   28 1
    53   28   29 2
    54   28   30 2
    55   31   32 1
    56   31   62 1
    57   32   33 2
    58   32   34 2
    59   32   35 1
    60   35   40 ar
    61   35   36 ar
    62   36   37 ar
    63   36   63 1
    64   37   38 ar
    65   37   64 1
    66   38   39 ar
    67   38   65 1
    68   39   40 ar
    69   39   41 1
    70   40   66 1
@<TRIPOS>MOLECULE
CHEMBL403746__1
   66    70     0     0     0
SMALL
USER_CHARGES

@<TRIPOS>ATOM
      1 C1         -0.0167    1.3781    0.0096 C.ar      1 <0>        -0.1278
      2 C2          1.1709    2.0855    0.0021 C.ar      1 <0>        -0.1202
      3 C3          2.3773    1.4107   -0.0130 C.ar      1 <0>        -0.1192
      4 C4          2.3960    0.0285   -0.0201 C.ar      1 <0>        -0.0791
      5 C5          1.2084   -0.6789   -0.0117 C.ar      1 <0>        -0.1153
      6 C6          0.0021   -0.0041    0.0020 C.ar      1 <0>        -0.1187
      7 C7          3.7112   -0.7071   -0.0376 C.3       1 <0>        -0.0728
      8 C8          4.1714   -0.9633    1.3989 C.3       1 <0>        -0.0248
      9 C9          5.4865   -1.6989    1.3815 C.2       1 <0>         0.0080
     10 C10         6.6179   -1.3121    2.0010 C.2       1 <0>        -0.0494
     11 N1          7.5641   -2.2626    1.7273 N.pl3     1 <0>        -0.5610
     12 C11         6.9776   -3.1978    0.9495 C.2       1 <0>         0.2074
     13 N2          5.7337   -2.8567    0.7510 N.2       1 <0>        -0.4671
     14 H1          8.4841   -2.2641    2.0347 H         1 <0>         0.4183
     15 C12         7.6469   -4.4337    0.4058 C.3       1 <0>         0.2515
     16 C13         6.8441   -5.6703    0.8147 C.3       1 <0>        -0.0801
     17 C14         7.4428   -6.8937    0.1698 C.ar      1 <0>        -0.0933
     18 C15         7.0067   -7.3013   -1.0770 C.ar      1 <0>        -0.1083
     19 C16         7.5559   -8.4235   -1.6685 C.ar      1 <0>        -0.1095
     20 C17         8.5415   -9.1379   -1.0134 C.ar      1 <0>        -0.0389
     21 C18         8.9783   -8.7298    0.2330 C.ar      1 <0>        -0.0806
     22 C19         8.4321   -7.6051    0.8227 C.ar      1 <0>        -0.0689
     23 C20         9.1395  -10.3619   -1.6579 C.3       1 <0>        -0.5480
     24 C21         9.1344  -11.5781   -0.6907 C.3       1 <0>        -0.1439
     25 C22        10.4293  -12.3153   -0.8553 C.2       1 <0>         0.4320
     26 O1         10.5456  -13.5831   -0.4086 O.3       1 <0>        -0.6643
     27 N3         11.4260  -11.7408   -1.4209 N.2       1 <0>        -0.9157
     28 S1         10.9608  -10.1955   -1.8691 S.o2      1 <0>         2.4593
     29 O2         11.3044  -10.0721   -3.2424 O.2       1 <0>        -0.9884
     30 O3         11.5095   -9.3272   -0.8872 O.2       1 <0>        -0.9733
     31 N4          9.0047   -4.5319    0.9471 N.pl3     1 <0>        -1.1186
     32 S2         10.2261   -5.1465    0.0128 S.o2      1 <0>         2.6668
     33 O4         11.4084   -5.0861    0.7988 O.2       1 <0>        -0.9456
     34 O5          9.7412   -6.3617   -0.5417 O.2       1 <0>        -0.8876
     35 C23        10.4601   -4.0360   -1.3351 C.ar      1 <0>        -0.6520
     36 C24         9.7461   -4.2105   -2.5062 C.ar      1 <0>        -0.0288
     37 C25         9.9287   -3.3402   -3.5644 C.ar      1 <0>        -0.1071
     38 C26        10.8257   -2.2946   -3.4531 C.ar      1 <0>        -0.1001
     39 C27        11.5412   -2.1189   -2.2810 C.ar      1 <0>         0.0784
     40 C28        11.3529   -2.9878   -1.2193 C.ar      1 <0>        -0.0587
     41 F1         12.4186   -1.0974   -2.1712 F         1 <0>        -0.1351
     42 H2         -0.9591    1.9053    0.0259 H         1 <0>         0.1188
     43 H3          1.1563    3.1654    0.0076 H         1 <0>         0.1193
     44 H4          3.3051    1.9634   -0.0196 H         1 <0>         0.1198
     45 H5          1.2231   -1.7588   -0.0176 H         1 <0>         0.1233
     46 H6         -0.9258   -0.5567    0.0082 H         1 <0>         0.1205
     47 H7          3.5884   -1.6586   -0.5549 H         1 <0>         0.0822
     48 H8          4.4573   -0.1052   -0.5563 H         1 <0>         0.0690
     49 H9          4.2941   -0.0118    1.9163 H         1 <0>         0.0738
     50 H10         3.4252   -1.5652    1.9176 H         1 <0>         0.0763
     51 H11         6.7529   -0.4227    2.5986 H         1 <0>         0.1766
     52 H12         7.6927   -4.3735   -0.6816 H         1 <0>         0.1109
     53 H13         6.8729   -5.7801    1.8988 H         1 <0>         0.0785
     54 H14         5.8104   -5.5567    0.4884 H         1 <0>         0.0981
     55 H15         6.2367   -6.7432   -1.5888 H         1 <0>         0.1154
     56 H16         7.2147   -8.7424   -2.6423 H         1 <0>         0.1155
     57 H17         9.7481   -9.2881    0.7450 H         1 <0>         0.1249
     58 H18         8.7759   -7.2841    1.7948 H         1 <0>         0.1074
     59 H19         8.6458  -10.5958   -2.6010 H         1 <0>         0.1361
     60 H20         9.0377  -11.2298    0.3376 H         1 <0>         0.1038
     61 H21         8.3020  -12.2382   -0.9344 H         1 <0>         0.1045
     62 H22         9.1883   -4.2370    1.8527 H         1 <0>         0.4138
     63 H23         9.0455   -5.0277   -2.5944 H         1 <0>         0.1532
     64 H24         9.3704   -3.4774   -4.4787 H         1 <0>         0.1457
     65 H25        10.9687   -1.6151   -4.2803 H         1 <0>         0.1437
     66 H26        11.9073   -2.8491   -0.3028 H         1 <0>         0.1495
@<TRIPOS>BOND
     1    1    6 ar
     2    1    2 ar
     3    1   42 1
     4    2    3 ar
     5    2   43 1
     6    3    4 ar
     7    3   44 1
     8    4    5 ar
     9    4    7 1
    10    5    6 ar
    11    5   45 1
    12    6   46 1
    13    7    8 1
    14    7   47 1
    15    7   48 1
    16    8   49 1
    17    8   50 1
    18    8    9 1
    19    9   13 1
    20    9   10 2
    21   10   51 1
    22   10   11 1
    23   11   12 1
    24   11   14 1
    25   12   15 1
    26   12   13 2
    27   15   16 1
    28   15   31 1
    29   15   52 1
    30   16   17 1
    31   16   53 1
    32   16   54 1
    33   17   22 ar
    34   17   18 ar
    35   18   19 ar
    36   18   55 1
    37   19   20 ar
    38   19   56 1
    39   20   21 ar
    40   20   23 1
    41   21   22 ar
    42   21   57 1
    43   22   58 1
    44   23   28 1
    45   23   24 1
    46   23   59 1
    47   24   25 1
    48   24   60 1
    49   24   61 1
    50   25   26 1
    51   25   27 2
    52   27   28 1
    53   28   29 2
    54   28   30 2
    55   31   32 1
    56   31   62 1
    57   32   33 2
    58   32   34 2
    59   32   35 1
    60   35   40 ar
    61   35   36 ar
    62   36   37 ar
    63   36   63 1
    64   37   38 ar
    65   37   64 1
    66   38   39 ar
    67   38   65 1
    68   39   40 ar
    69   39   41 1
    70   40   66 1
@<TRIPOS>MOLECULE
CHEMBL403746__2
   66    70     0     0     0
SMALL
USER_CHARGES

@<TRIPOS>ATOM
      1 C1         -0.0167    1.3781    0.0096 C.ar      1 <0>        -0.1244
      2 C2          1.1709    2.0855    0.0021 C.ar      1 <0>        -0.1180
      3 C3          2.3773    1.4107   -0.0130 C.ar      1 <0>        -0.1175
      4 C4          2.3960    0.0285   -0.0201 C.ar      1 <0>        -0.0833
      5 C5          1.2084   -0.6789   -0.0117 C.ar      1 <0>        -0.1155
      6 C6          0.0021   -0.0041    0.0020 C.ar      1 <0>        -0.1182
      7 C7          3.7112   -0.7071   -0.0376 C.3       1 <0>        -0.0759
      8 C8          4.1714   -0.9633    1.3989 C.3       1 <0>        -0.0372
      9 C9          5.4865   -1.6989    1.3815 C.2       1 <0>        -0.0202
     10 C10         5.6604   -3.0299    1.2729 C.2       1 <0>        -0.0153
     11 N1          6.9780   -3.2796    1.2974 N.2       1 <0>        -0.4710
     12 C11         7.6272   -2.1539    1.4170 C.2       1 <0>         0.2055
     13 N2          6.7340   -1.1422    1.4670 N.pl3     1 <0>        -0.5578
     14 H1          6.9383   -0.1976    1.5500 H         1 <0>         0.4162
     15 C12         9.1256   -2.0067    1.4828 C.3       1 <0>         0.2527
     16 C13         9.6745   -2.8788    2.6138 C.3       1 <0>        -0.0810
     17 C14        11.1806   -2.8278    2.6017 C.ar      1 <0>        -0.0936
     18 C15        11.8971   -3.7426    1.8530 C.ar      1 <0>        -0.1075
     19 C16        13.2786   -3.6958    1.8419 C.ar      1 <0>        -0.1102
     20 C17        13.9436   -2.7339    2.5792 C.ar      1 <0>        -0.0280
     21 C18        13.2270   -1.8186    3.3272 C.ar      1 <0>        -0.0820
     22 C19        11.8454   -1.8627    3.3349 C.ar      1 <0>        -0.0648
     23 C20        15.4497   -2.6836    2.5679 C.3       1 <0>        -0.5469
     24 C21        15.9721   -1.2526    2.2610 C.3       1 <0>        -0.1460
     25 C22        16.2441   -0.5619    3.5633 C.2       1 <0>         0.4336
     26 O1         16.3654    0.7813    3.6023 O.3       1 <0>        -0.6613
     27 N3         16.3611   -1.2477    4.6399 N.2       1 <0>        -0.9116
     28 S1         16.1468   -2.8653    4.2621 S.o2      1 <0>         2.4529
     29 O2         15.1632   -3.3462    5.1680 O.2       1 <0>        -0.9724
     30 O3         17.4512   -3.4273    4.2178 O.2       1 <0>        -0.9967
     31 N4          9.4679   -0.6051    1.7367 N.pl3     1 <0>        -1.1173
     32 S2         10.8249    0.0528    1.0526 S.o2      1 <0>         2.6664
     33 O4         10.8665    1.4134    1.4604 O.2       1 <0>        -0.9473
     34 O5         11.8894   -0.8526    1.3103 O.2       1 <0>        -0.8911
     35 C23        10.5789    0.0573   -0.6921 C.ar      1 <0>        -0.6516
     36 C24        10.9691   -1.0328   -1.4479 C.ar      1 <0>        -0.0280
     37 C25        10.7767   -1.0307   -2.8167 C.ar      1 <0>        -0.1077
     38 C26        10.1944    0.0616   -3.4316 C.ar      1 <0>        -0.1003
     39 C27         9.8033    1.1537   -2.6759 C.ar      1 <0>         0.0786
     40 C28         9.9910    1.1479   -1.3039 C.ar      1 <0>        -0.0585
     41 F1          9.2344    2.2221   -3.2759 F         1 <0>        -0.1349
     42 H2         -0.9591    1.9053    0.0259 H         1 <0>         0.1206
     43 H3          1.1563    3.1654    0.0076 H         1 <0>         0.1213
     44 H4          3.3051    1.9634   -0.0196 H         1 <0>         0.1199
     45 H5          1.2231   -1.7588   -0.0176 H         1 <0>         0.1231
     46 H6         -0.9258   -0.5567    0.0082 H         1 <0>         0.1218
     47 H7          3.5884   -1.6586   -0.5549 H         1 <0>         0.0794
     48 H8          4.4573   -0.1052   -0.5563 H         1 <0>         0.0705
     49 H9          4.2941   -0.0118    1.9163 H         1 <0>         0.0722
     50 H10         3.4252   -1.5652    1.9176 H         1 <0>         0.0910
     51 H11         4.8764   -3.7671    1.1820 H         1 <0>         0.1709
     52 H12         9.5635   -2.3219    0.5357 H         1 <0>         0.1106
     53 H13         9.3060   -2.5078    3.5702 H         1 <0>         0.0795
     54 H14         9.3446   -3.9079    2.4719 H         1 <0>         0.0987
     55 H15        11.3776   -4.4941    1.2770 H         1 <0>         0.1149
     56 H16        13.8385   -4.4110    1.2575 H         1 <0>         0.1136
     57 H17        13.7465   -1.0673    3.9035 H         1 <0>         0.1192
     58 H18        11.2854   -1.1452    3.9163 H         1 <0>         0.1070
     59 H19        15.8668   -3.4201    1.8811 H         1 <0>         0.1350
     60 H20        16.8912   -1.3139    1.6782 H         1 <0>         0.1016
     61 H21        15.2188   -0.6984    1.7011 H         1 <0>         0.1105
     62 H22         8.8998   -0.0625    2.3056 H         1 <0>         0.4146
     63 H23        11.4249   -1.8865   -0.9684 H         1 <0>         0.1536
     64 H24        11.0819   -1.8828   -3.4060 H         1 <0>         0.1451
     65 H25        10.0448    0.0633   -4.5011 H         1 <0>         0.1433
     66 H26         9.6822    1.9974   -0.7128 H         1 <0>         0.1494
@<TRIPOS>BOND
     1    1    6 ar
     2    1    2 ar
     3    1   42 1
     4    2    3 ar
     5    2   43 1
     6    3    4 ar
     7    3   44 1
     8    4    5 ar
     9    4    7 1
    10    5    6 ar
    11    5   45 1
    12    6   46 1
    13    7    8 1
    14    7   47 1
    15    7   48 1
    16    8    9 1
    17    8   49 1
    18    8   50 1
    19    9   13 1
    20    9   10 2
    21   10   11 1
    22   10   51 1
    23   11   12 2
    24   12   13 1
    25   12   15 1
    26   13   14 1
    27   15   16 1
    28   15   31 1
    29   15   52 1
    30   16   17 1
    31   16   53 1
    32   16   54 1
    33   17   22 ar
    34   17   18 ar
    35   18   19 ar
    36   18   55 1
    37   19   20 ar
    38   19   56 1
    39   20   21 ar
    40   20   23 1
    41   21   22 ar
    42   21   57 1
    43   22   58 1
    44   23   28 1
    45   23   24 1
    46   23   59 1
    47   24   25 1
    48   24   60 1
    49   24   61 1
    50   25   26 1
    51   25   27 2
    52   27   28 1
    53   28   29 2
    54   28   30 2
    55   31   32 1
    56   31   62 1
    57   32   33 2
    58   32   34 2
    59   32   35 1
    60   35   40 ar
    61   35   36 ar
    62   36   37 ar
    63   36   63 1
    64   37   38 ar
    65   37   64 1
    66   38   39 ar
    67   38   65 1
    68   39   40 ar
    69   39   41 1
    70   40   66 1
@<TRIPOS>MOLECULE
CHEMBL403746__3
   66    70     0     0     0
SMALL
USER_CHARGES

@<TRIPOS>ATOM
      1 C1         -0.0167    1.3781    0.0096 C.ar      1 <0>        -0.1278
      2 C2          1.1709    2.0855    0.0021 C.ar      1 <0>        -0.1204
      3 C3          2.3773    1.4107   -0.0130 C.ar      1 <0>        -0.1193
      4 C4          2.3960    0.0285   -0.0201 C.ar      1 <0>        -0.0791
      5 C5          1.2084   -0.6789   -0.0117 C.ar      1 <0>        -0.1152
      6 C6          0.0021   -0.0041    0.0020 C.ar      1 <0>        -0.1186
      7 C7          3.7112   -0.7071   -0.0376 C.3       1 <0>        -0.0726
      8 C8          4.1714   -0.9633    1.3989 C.3       1 <0>        -0.0249
      9 C9          5.4865   -1.6989    1.3815 C.2       1 <0>         0.0081
     10 C10         6.6179   -1.3121    2.0010 C.2       1 <0>        -0.0495
     11 N1          7.5641   -2.2626    1.7273 N.pl3     1 <0>        -0.5612
     12 C11         6.9776   -3.1978    0.9495 C.2       1 <0>         0.2074
     13 N2          5.7337   -2.8567    0.7510 N.2       1 <0>        -0.4667
     14 H1          8.4841   -2.2641    2.0347 H         1 <0>         0.4181
     15 C12         7.6469   -4.4337    0.4058 C.3       1 <0>         0.2524
     16 C13         6.8441   -5.6703    0.8147 C.3       1 <0>        -0.0807
     17 C14         7.4428   -6.8937    0.1698 C.ar      1 <0>        -0.0936
     18 C15         7.0067   -7.3013   -1.0770 C.ar      1 <0>        -0.1074
     19 C16         7.5559   -8.4235   -1.6685 C.ar      1 <0>        -0.1102
     20 C17         8.5415   -9.1379   -1.0134 C.ar      1 <0>        -0.0279
     21 C18         8.9783   -8.7298    0.2330 C.ar      1 <0>        -0.0820
     22 C19         8.4321   -7.6051    0.8227 C.ar      1 <0>        -0.0649
     23 C20         9.1395  -10.3619   -1.6579 C.3       1 <0>        -0.5469
     24 C21        10.6926  -10.3104   -1.6526 C.3       1 <0>        -0.1459
     25 C22        11.1837  -11.0557   -0.4482 C.2       1 <0>         0.4336
     26 O1         12.4468  -10.8733   -0.0104 O.3       1 <0>        -0.6612
     27 N3         10.4031  -11.8662    0.1659 N.2       1 <0>        -0.9116
     28 S1          8.9177  -11.8578   -0.6079 S.o2      1 <0>         2.4529
     29 O2          7.9536  -11.6263    0.4100 O.2       1 <0>        -0.9725
     30 O3          8.8891  -13.0364   -1.4013 O.2       1 <0>        -0.9966
     31 N4          9.0047   -4.5319    0.9471 N.pl3     1 <0>        -1.1172
     32 S2         10.2261   -5.1465    0.0128 S.o2      1 <0>         2.6666
     33 O4         11.4084   -5.0861    0.7988 O.2       1 <0>        -0.9473
     34 O5          9.7412   -6.3617   -0.5417 O.2       1 <0>        -0.8912
     35 C23        10.4601   -4.0360   -1.3351 C.ar      1 <0>        -0.6515
     36 C24         9.7461   -4.2105   -2.5062 C.ar      1 <0>        -0.0280
     37 C25         9.9287   -3.3402   -3.5644 C.ar      1 <0>        -0.1078
     38 C26        10.8257   -2.2946   -3.4531 C.ar      1 <0>        -0.1003
     39 C27        11.5412   -2.1189   -2.2810 C.ar      1 <0>         0.0785
     40 C28        11.3529   -2.9878   -1.2193 C.ar      1 <0>        -0.0584
     41 F1         12.4186   -1.0974   -2.1712 F         1 <0>        -0.1349
     42 H2         -0.9591    1.9053    0.0259 H         1 <0>         0.1187
     43 H3          1.1563    3.1654    0.0076 H         1 <0>         0.1191
     44 H4          3.3051    1.9634   -0.0196 H         1 <0>         0.1196
     45 H5          1.2231   -1.7588   -0.0176 H         1 <0>         0.1235
     46 H6         -0.9258   -0.5567    0.0082 H         1 <0>         0.1206
     47 H7          3.5884   -1.6586   -0.5549 H         1 <0>         0.0823
     48 H8          4.4573   -0.1052   -0.5563 H         1 <0>         0.0687
     49 H9          4.2941   -0.0118    1.9163 H         1 <0>         0.0738
     50 H10         3.4252   -1.5652    1.9176 H         1 <0>         0.0766
     51 H11         6.7529   -0.4227    2.5986 H         1 <0>         0.1766
     52 H12         7.6927   -4.3735   -0.6816 H         1 <0>         0.1106
     53 H13         6.8729   -5.7801    1.8988 H         1 <0>         0.0793
     54 H14         5.8104   -5.5567    0.4884 H         1 <0>         0.0986
     55 H15         6.2367   -6.7432   -1.5888 H         1 <0>         0.1147
     56 H16         7.2147   -8.7424   -2.6423 H         1 <0>         0.1135
     57 H17         9.7481   -9.2881    0.7450 H         1 <0>         0.1192
     58 H18         8.7759   -7.2841    1.7948 H         1 <0>         0.1070
     59 H19         8.7455  -10.5147   -2.6626 H         1 <0>         0.1350
     60 H20        11.0791  -10.7788   -2.5577 H         1 <0>         0.1016
     61 H21        11.0260   -9.2738   -1.6047 H         1 <0>         0.1105
     62 H22         9.1883   -4.2370    1.8527 H         1 <0>         0.4147
     63 H23         9.0455   -5.0277   -2.5944 H         1 <0>         0.1536
     64 H24         9.3704   -3.4774   -4.4787 H         1 <0>         0.1450
     65 H25        10.9687   -1.6151   -4.2803 H         1 <0>         0.1433
     66 H26        11.9073   -2.8491   -0.3028 H         1 <0>         0.1496
@<TRIPOS>BOND
     1    1    6 ar
     2    1    2 ar
     3    1   42 1
     4    2    3 ar
     5    2   43 1
     6    3    4 ar
     7    3   44 1
     8    4    5 ar
     9    4    7 1
    10    5    6 ar
    11    5   45 1
    12    6   46 1
    13    7    8 1
    14    7   47 1
    15    7   48 1
    16    8   49 1
    17    8   50 1
    18    8    9 1
    19    9   13 1
    20    9   10 2
    21   10   51 1
    22   10   11 1
    23   11   12 1
    24   11   14 1
    25   12   15 1
    26   12   13 2
    27   15   16 1
    28   15   31 1
    29   15   52 1
    30   16   17 1
    31   16   53 1
    32   16   54 1
    33   17   22 ar
    34   17   18 ar
    35   18   19 ar
    36   18   55 1
    37   19   20 ar
    38   19   56 1
    39   20   21 ar
    40   20   23 1
    41   21   22 ar
    42   21   57 1
    43   22   58 1
    44   23   28 1
    45   23   24 1
    46   23   59 1
    47   24   25 1
    48   24   60 1
    49   24   61 1
    50   25   26 1
    51   25   27 2
    52   27   28 1
    53   28   29 2
    54   28   30 2
    55   31   32 1
    56   31   62 1
    57   32   33 2
    58   32   34 2
    59   32   35 1
    60   35   40 ar
    61   35   36 ar
    62   36   37 ar
    63   36   63 1
    64   37   38 ar
    65   37   64 1
    66   38   39 ar
    67   38   65 1
    68   39   40 ar
    69   39   41 1
    70   40   66 1
@<TRIPOS>MOLECULE
CHEMBL403746__4
   66    70     0     0     0
SMALL
USER_CHARGES

@<TRIPOS>ATOM
      1 C1         -0.0167    1.3781    0.0096 C.ar      1 <0>        -0.1257
      2 C2          1.1709    2.0855    0.0021 C.ar      1 <0>        -0.1185
      3 C3          2.3773    1.4107   -0.0130 C.ar      1 <0>        -0.1171
      4 C4          2.3960    0.0285   -0.0201 C.ar      1 <0>        -0.0812
      5 C5          1.2084   -0.6789   -0.0117 C.ar      1 <0>        -0.1161
      6 C6          0.0021   -0.0041    0.0020 C.ar      1 <0>        -0.1189
      7 C7          3.7112   -0.7071   -0.0376 C.3       1 <0>        -0.0784
      8 C8          4.1714   -0.9633    1.3989 C.3       1 <0>        -0.0359
      9 C9          5.4865   -1.6989    1.3815 C.2       1 <0>        -0.0147
     10 C10         5.6604   -3.0299    1.2729 C.2       1 <0>        -0.0221
     11 N1          6.9780   -3.2796    1.2974 N.2       1 <0>        -0.4671
     12 C11         7.6272   -2.1539    1.4170 C.2       1 <0>         0.1914
     13 N2          6.7340   -1.1422    1.4670 N.pl3     1 <0>        -0.5496
     14 H1          6.9383   -0.1976    1.5500 H         1 <0>         0.4191
     15 C12         9.1256   -2.0067    1.4828 C.3       1 <0>         0.2528
     16 C13         9.6745   -2.8788    2.6138 C.3       1 <0>        -0.0700
     17 C14        11.1551   -2.6388    2.7598 C.ar      1 <0>        -0.0948
     18 C15        12.0535   -3.4031    2.0389 C.ar      1 <0>        -0.1115
     19 C16        13.4116   -3.1830    2.1728 C.ar      1 <0>        -0.1113
     20 C17        13.8713   -2.1983    3.0273 C.ar      1 <0>        -0.0475
     21 C18        12.9728   -1.4335    3.7475 C.ar      1 <0>        -0.0983
     22 C19        11.6146   -1.6507    3.6103 C.ar      1 <0>        -0.1084
     23 C20        15.3519   -1.9590    3.1740 C.3       1 <0>        -0.5540
     24 C21        15.7825   -1.9347    4.6669 C.3       1 <0>        -0.1436
     25 C22        16.7919   -0.8412    4.8475 C.2       1 <0>         0.4312
     26 O1         17.5816   -0.8257    5.9414 O.3       1 <0>        -0.6597
     27 N3         16.9047    0.0789    3.9621 N.2       1 <0>        -0.9128
     28 S1         15.8058   -0.2293    2.7363 S.o2      1 <0>         2.4524
     29 O2         16.5536   -0.1897    1.5286 O.2       1 <0>        -0.9680
     30 O3         14.7169    0.6551    2.9629 O.2       1 <0>        -0.9803
     31 N4          9.7142   -2.4304    0.2099 N.pl3     1 <0>        -1.0969
     32 S2         10.0515   -1.3084   -0.9604 S.o2      1 <0>         2.6938
     33 O4         10.6306   -2.0170   -2.0475 O.2       1 <0>        -0.9531
     34 O5          8.8849   -0.5103   -1.1063 O.2       1 <0>        -0.9549
     35 C23        11.3082   -0.2512   -0.3219 C.ar      1 <0>        -0.6601
     36 C24        10.9618    0.8849    0.3860 C.ar      1 <0>        -0.0391
     37 C25        11.9465    1.7151    0.8875 C.ar      1 <0>        -0.1058
     38 C26        13.2789    1.4107    0.6815 C.ar      1 <0>        -0.0579
     39 C27        13.6270    0.2735   -0.0271 C.ar      1 <0>         0.0682
     40 C28        12.6396   -0.5608   -0.5239 C.ar      1 <0>        -0.0510
     41 F1         14.9290   -0.0248   -0.2295 F         1 <0>        -0.1113
     42 H2         -0.9591    1.9053    0.0259 H         1 <0>         0.1198
     43 H3          1.1563    3.1654    0.0076 H         1 <0>         0.1209
     44 H4          3.3051    1.9634   -0.0196 H         1 <0>         0.1210
     45 H5          1.2231   -1.7588   -0.0176 H         1 <0>         0.1227
     46 H6         -0.9258   -0.5567    0.0082 H         1 <0>         0.1210
     47 H7          3.5884   -1.6586   -0.5549 H         1 <0>         0.0792
     48 H8          4.4573   -0.1052   -0.5563 H         1 <0>         0.0749
     49 H9          4.2941   -0.0118    1.9163 H         1 <0>         0.0720
     50 H10         3.4252   -1.5652    1.9176 H         1 <0>         0.0892
     51 H11         4.8764   -3.7671    1.1820 H         1 <0>         0.1687
     52 H12         9.3803   -0.9639    1.6717 H         1 <0>         0.0977
     53 H13         9.1713   -2.6234    3.5464 H         1 <0>         0.0891
     54 H14         9.4978   -3.9289    2.3814 H         1 <0>         0.0961
     55 H15        11.6943   -4.1723    1.3714 H         1 <0>         0.1233
     56 H16        14.1136   -3.7805    1.6101 H         1 <0>         0.1239
     57 H17        13.3320   -0.6644    4.4153 H         1 <0>         0.1335
     58 H18        10.9125   -1.0507    4.1702 H         1 <0>         0.1225
     59 H19        15.9303   -2.6832    2.6002 H         1 <0>         0.1376
     60 H20        14.9143   -1.7415    5.2969 H         1 <0>         0.1037
     61 H21        16.2261   -2.8930    4.9373 H         1 <0>         0.1059
     62 H22         9.9063   -3.3680    0.0526 H         1 <0>         0.4258
     63 H23         9.9209    1.1239    0.5469 H         1 <0>         0.1380
     64 H24        11.6747    2.6022    1.4403 H         1 <0>         0.1413
     65 H25        14.0482    2.0599    1.0728 H         1 <0>         0.1499
     66 H26        12.9100   -1.4506   -1.0730 H         1 <0>         0.1488
@<TRIPOS>BOND
     1    1    6 ar
     2    1    2 ar
     3    1   42 1
     4    2    3 ar
     5    2   43 1
     6    3    4 ar
     7    3   44 1
     8    4    5 ar
     9    4    7 1
    10    5    6 ar
    11    5   45 1
    12    6   46 1
    13    7    8 1
    14    7   47 1
    15    7   48 1
    16    8    9 1
    17    8   49 1
    18    8   50 1
    19    9   13 1
    20    9   10 2
    21   10   11 1
    22   10   51 1
    23   11   12 2
    24   12   13 1
    25   12   15 1
    26   13   14 1
    27   15   16 1
    28   15   31 1
    29   15   52 1
    30   16   17 1
    31   16   53 1
    32   16   54 1
    33   17   22 ar
    34   17   18 ar
    35   18   19 ar
    36   18   55 1
    37   19   20 ar
    38   19   56 1
    39   20   21 ar
    40   20   23 1
    41   21   22 ar
    42   21   57 1
    43   22   58 1
    44   23   28 1
    45   23   24 1
    46   23   59 1
    47   24   25 1
    48   24   60 1
    49   24   61 1
    50   25   26 1
    51   25   27 2
    52   27   28 1
    53   28   29 2
    54   28   30 2
    55   31   32 1
    56   31   62 1
    57   32   33 2
    58   32   34 2
    59   32   35 1
    60   35   40 ar
    61   35   36 ar
    62   36   37 ar
    63   36   63 1
    64   37   38 ar
    65   37   64 1
    66   38   39 ar
    67   38   65 1
    68   39   40 ar
    69   39   41 1
    70   40   66 1
@<TRIPOS>MOLECULE
CHEMBL403746__5
   66    70     0     0     0
SMALL
USER_CHARGES

@<TRIPOS>ATOM
      1 C1         -0.0167    1.3781    0.0096 C.ar      1 <0>        -0.1285
      2 C2          1.1709    2.0855    0.0021 C.ar      1 <0>        -0.1200
      3 C3          2.3773    1.4107   -0.0130 C.ar      1 <0>        -0.1189
      4 C4          2.3960    0.0285   -0.0201 C.ar      1 <0>        -0.0778
      5 C5          1.2084   -0.6789   -0.0117 C.ar      1 <0>        -0.1157
      6 C6          0.0021   -0.0041    0.0020 C.ar      1 <0>        -0.1192
      7 C7          3.7112   -0.7071   -0.0376 C.3       1 <0>        -0.0742
      8 C8          4.1714   -0.9633    1.3989 C.3       1 <0>        -0.0231
      9 C9          5.4865   -1.6989    1.3815 C.2       1 <0>         0.0006
     10 C10         6.6179   -1.3121    2.0010 C.2       1 <0>        -0.0429
     11 N1          7.5641   -2.2626    1.7273 N.pl3     1 <0>        -0.5530
     12 C11         6.9776   -3.1978    0.9495 C.2       1 <0>         0.1933
     13 N2          5.7337   -2.8567    0.7510 N.2       1 <0>        -0.4625
     14 H1          8.4841   -2.2641    2.0347 H         1 <0>         0.4210
     15 C12         7.6469   -4.4337    0.4058 C.3       1 <0>         0.2526
     16 C13         6.8441   -5.6703    0.8147 C.3       1 <0>        -0.0697
     17 C14         7.5770   -6.9123    0.3772 C.ar      1 <0>        -0.0948
     18 C15         7.3397   -7.4503   -0.8739 C.ar      1 <0>        -0.1114
     19 C16         8.0119   -8.5895   -1.2752 C.ar      1 <0>        -0.1113
     20 C17         8.9219   -9.1905   -0.4257 C.ar      1 <0>        -0.0474
     21 C18         9.1599   -8.6520    0.8250 C.ar      1 <0>        -0.0984
     22 C19         8.4908   -7.5103    1.2247 C.ar      1 <0>        -0.1084
     23 C20         9.6541  -10.4330   -0.8629 C.3       1 <0>        -0.5541
     24 C21         9.5598  -11.5582    0.2048 C.3       1 <0>        -0.1436
     25 C22        10.8934  -12.2375    0.2911 C.2       1 <0>         0.4312
     26 O1         10.9954  -13.4532    0.8672 O.3       1 <0>        -0.6595
     27 N3         11.9367  -11.6630   -0.1830 N.2       1 <0>        -0.9128
     28 S1         11.4788  -10.1898   -0.8351 S.o2      1 <0>         2.4524
     29 O2         12.0093  -10.1695   -2.1532 O.2       1 <0>        -0.9680
     30 O3         11.8468   -9.2109    0.1269 O.2       1 <0>        -0.9804
     31 N4          7.7085   -4.3528   -1.0557 N.pl3     1 <0>        -1.0968
     32 S2          9.0702   -3.7697   -1.7960 S.o2      1 <0>         2.6938
     33 O4          8.8341   -3.8417   -3.1954 O.2       1 <0>        -0.9530
     34 O5          9.3994   -2.5526   -1.1406 O.2       1 <0>        -0.9550
     35 C23        10.3770   -4.8990   -1.4471 C.ar      1 <0>        -0.6601
     36 C24        11.1577   -4.7253   -0.3192 C.ar      1 <0>        -0.0392
     37 C25        12.1831   -5.6104   -0.0441 C.ar      1 <0>        -0.1058
     38 C26        12.4296   -6.6700   -0.8968 C.ar      1 <0>        -0.0581
     39 C27        11.6486   -6.8449   -2.0264 C.ar      1 <0>         0.0682
     40 C28        10.6176   -5.9610   -2.2976 C.ar      1 <0>        -0.0509
     41 F1         11.8888   -7.8799   -2.8607 F         1 <0>        -0.1113
     42 H2         -0.9591    1.9053    0.0259 H         1 <0>         0.1184
     43 H3          1.1563    3.1654    0.0076 H         1 <0>         0.1192
     44 H4          3.3051    1.9634   -0.0196 H         1 <0>         0.1204
     45 H5          1.2231   -1.7588   -0.0176 H         1 <0>         0.1226
     46 H6         -0.9258   -0.5567    0.0082 H         1 <0>         0.1199
     47 H7          3.5884   -1.6586   -0.5549 H         1 <0>         0.0815
     48 H8          4.4573   -0.1052   -0.5563 H         1 <0>         0.0701
     49 H9          4.2941   -0.0118    1.9163 H         1 <0>         0.0731
     50 H10         3.4252   -1.5652    1.9176 H         1 <0>         0.0745
     51 H11         6.7529   -0.4227    2.5986 H         1 <0>         0.1759
     52 H12         8.6571   -4.5068    0.8085 H         1 <0>         0.0980
     53 H13         6.7226   -5.6828    1.8978 H         1 <0>         0.0889
     54 H14         5.8637   -5.6406    0.3394 H         1 <0>         0.0960
     55 H15         6.6287   -6.9807   -1.5376 H         1 <0>         0.1232
     56 H16         7.8260   -9.0102   -2.2524 H         1 <0>         0.1238
     57 H17         9.8706   -9.1217    1.4888 H         1 <0>         0.1335
     58 H18         8.6795   -7.0874    2.2004 H         1 <0>         0.1225
     59 H19         9.3095  -10.7747   -1.8389 H         1 <0>         0.1376
     60 H20         9.3037  -11.1265    1.1723 H         1 <0>         0.1037
     61 H21         8.7976  -12.2802   -0.0882 H         1 <0>         0.1059
     62 H22         6.9516   -4.6407   -1.5897 H         1 <0>         0.4257
     63 H23        10.9663   -3.8973    0.3473 H         1 <0>         0.1382
     64 H24        12.7923   -5.4738    0.8372 H         1 <0>         0.1414
     65 H25        13.2313   -7.3610   -0.6820 H         1 <0>         0.1498
     66 H26        10.0048   -6.0990   -3.1762 H         1 <0>         0.1487
@<TRIPOS>BOND
     1    1    6 ar
     2    1    2 ar
     3    1   42 1
     4    2    3 ar
     5    2   43 1
     6    3    4 ar
     7    3   44 1
     8    4    5 ar
     9    4    7 1
    10    5    6 ar
    11    5   45 1
    12    6   46 1
    13    7    8 1
    14    7   47 1
    15    7   48 1
    16    8   49 1
    17    8   50 1
    18    8    9 1
    19    9   13 1
    20    9   10 2
    21   10   51 1
    22   10   11 1
    23   11   12 1
    24   11   14 1
    25   12   15 1
    26   12   13 2
    27   15   16 1
    28   15   31 1
    29   15   52 1
    30   16   17 1
    31   16   53 1
    32   16   54 1
    33   17   22 ar
    34   17   18 ar
    35   18   19 ar
    36   18   55 1
    37   19   20 ar
    38   19   56 1
    39   20   21 ar
    40   20   23 1
    41   21   22 ar
    42   21   57 1
    43   22   58 1
    44   23   28 1
    45   23   24 1
    46   23   59 1
    47   24   25 1
    48   24   60 1
    49   24   61 1
    50   25   26 1
    51   25   27 2
    52   27   28 1
    53   28   29 2
    54   28   30 2
    55   31   32 1
    56   31   62 1
    57   32   33 2
    58   32   34 2
    59   32   35 1
    60   35   40 ar
    61   35   36 ar
    62   36   37 ar
    63   36   63 1
    64   37   38 ar
    65   37   64 1
    66   38   39 ar
    67   38   65 1
    68   39   40 ar
    69   39   41 1
    70   40   66 1
@<TRIPOS>MOLECULE
CHEMBL403746__6
   66    70     0     0     0
SMALL
USER_CHARGES

@<TRIPOS>ATOM
      1 C1         -0.0167    1.3781    0.0096 C.ar      1 <0>        -0.1257
      2 C2          1.1709    2.0855    0.0021 C.ar      1 <0>        -0.1185
      3 C3          2.3773    1.4107   -0.0130 C.ar      1 <0>        -0.1172
      4 C4          2.3960    0.0285   -0.0201 C.ar      1 <0>        -0.0812
      5 C5          1.2084   -0.6789   -0.0117 C.ar      1 <0>        -0.1160
      6 C6          0.0021   -0.0041    0.0020 C.ar      1 <0>        -0.1188
      7 C7          3.7112   -0.7071   -0.0376 C.3       1 <0>        -0.0781
      8 C8          4.1714   -0.9633    1.3989 C.3       1 <0>        -0.0361
      9 C9          5.4865   -1.6989    1.3815 C.2       1 <0>        -0.0146
     10 C10         5.6604   -3.0299    1.2729 C.2       1 <0>        -0.0218
     11 N1          6.9780   -3.2796    1.2974 N.2       1 <0>        -0.4665
     12 C11         7.6272   -2.1539    1.4170 C.2       1 <0>         0.1912
     13 N2          6.7340   -1.1422    1.4670 N.pl3     1 <0>        -0.5497
     14 H1          6.9383   -0.1976    1.5500 H         1 <0>         0.4188
     15 C12         9.1256   -2.0067    1.4828 C.3       1 <0>         0.2533
     16 C13         9.6745   -2.8788    2.6138 C.3       1 <0>        -0.0702
     17 C14        11.1551   -2.6388    2.7598 C.ar      1 <0>        -0.0956
     18 C15        12.0535   -3.4031    2.0389 C.ar      1 <0>        -0.1106
     19 C16        13.4116   -3.1830    2.1728 C.ar      1 <0>        -0.1117
     20 C17        13.8713   -2.1983    3.0273 C.ar      1 <0>        -0.0358
     21 C18        12.9728   -1.4335    3.7475 C.ar      1 <0>        -0.1012
     22 C19        11.6146   -1.6507    3.6103 C.ar      1 <0>        -0.1043
     23 C20        15.3519   -1.9590    3.1740 C.3       1 <0>        -0.5520
     24 C21        15.7084   -0.4563    3.0029 C.3       1 <0>        -0.1435
     25 C22        15.7624    0.1720    4.3629 C.2       1 <0>         0.4337
     26 O1         15.7018    1.5140    4.4892 O.3       1 <0>        -0.6600
     27 N3         15.8658   -0.5661    5.4059 N.2       1 <0>        -0.9075
     28 S1         15.9029   -2.1680    4.9182 S.o2      1 <0>         2.4552
     29 O2         14.9096   -2.8294    5.6896 O.2       1 <0>        -0.9702
     30 O3         17.2681   -2.5578    4.9771 O.2       1 <0>        -0.9919
     31 N4          9.7142   -2.4304    0.2099 N.pl3     1 <0>        -1.0953
     32 S2         10.0515   -1.3084   -0.9604 S.o2      1 <0>         2.6936
     33 O4         10.6306   -2.0170   -2.0475 O.2       1 <0>        -0.9527
     34 O5          8.8849   -0.5103   -1.1063 O.2       1 <0>        -0.9534
     35 C23        11.3082   -0.2512   -0.3219 C.ar      1 <0>        -0.6530
     36 C24        10.9618    0.8849    0.3860 C.ar      1 <0>        -0.0382
     37 C25        11.9465    1.7151    0.8875 C.ar      1 <0>        -0.1033
     38 C26        13.2789    1.4107    0.6815 C.ar      1 <0>        -0.0892
     39 C27        13.6270    0.2735   -0.0271 C.ar      1 <0>         0.0904
     40 C28        12.6396   -0.5608   -0.5239 C.ar      1 <0>        -0.0472
     41 F1         14.9290   -0.0248   -0.2295 F         1 <0>        -0.1285
     42 H2         -0.9591    1.9053    0.0259 H         1 <0>         0.1198
     43 H3          1.1563    3.1654    0.0076 H         1 <0>         0.1209
     44 H4          3.3051    1.9634   -0.0196 H         1 <0>         0.1209
     45 H5          1.2231   -1.7588   -0.0176 H         1 <0>         0.1228
     46 H6         -0.9258   -0.5567    0.0082 H         1 <0>         0.1210
     47 H7          3.5884   -1.6586   -0.5549 H         1 <0>         0.0791
     48 H8          4.4573   -0.1052   -0.5563 H         1 <0>         0.0746
     49 H9          4.2941   -0.0118    1.9163 H         1 <0>         0.0721
     50 H10         3.4252   -1.5652    1.9176 H         1 <0>         0.0894
     51 H11         4.8764   -3.7671    1.1820 H         1 <0>         0.1687
     52 H12         9.3803   -0.9639    1.6717 H         1 <0>         0.0970
     53 H13         9.1713   -2.6234    3.5464 H         1 <0>         0.0900
     54 H14         9.4978   -3.9289    2.3814 H         1 <0>         0.0966
     55 H15        11.6943   -4.1723    1.3714 H         1 <0>         0.1226
     56 H16        14.1136   -3.7805    1.6101 H         1 <0>         0.1224
     57 H17        13.3320   -0.6644    4.4153 H         1 <0>         0.1276
     58 H18        10.9125   -1.0507    4.1702 H         1 <0>         0.1225
     59 H19        15.9255   -2.5885    2.4937 H         1 <0>         0.1383
     60 H20        16.6787   -0.3617    2.5154 H         1 <0>         0.1047
     61 H21        14.9454    0.0364    2.4003 H         1 <0>         0.1013
     62 H22         9.9063   -3.3680    0.0526 H         1 <0>         0.4265
     63 H23         9.9209    1.1239    0.5469 H         1 <0>         0.1403
     64 H24        11.6747    2.6022    1.4403 H         1 <0>         0.1441
     65 H25        14.0482    2.0599    1.0728 H         1 <0>         0.1500
     66 H26        12.9100   -1.4506   -1.0730 H         1 <0>         0.1499
@<TRIPOS>BOND
     1    1    6 ar
     2    1    2 ar
     3    1   42 1
     4    2    3 ar
     5    2   43 1
     6    3    4 ar
     7    3   44 1
     8    4    5 ar
     9    4    7 1
    10    5    6 ar
    11    5   45 1
    12    6   46 1
    13    7    8 1
    14    7   47 1
    15    7   48 1
    16    8    9 1
    17    8   49 1
    18    8   50 1
    19    9   13 1
    20    9   10 2
    21   10   11 1
    22   10   51 1
    23   11   12 2
    24   12   13 1
    25   12   15 1
    26   13   14 1
    27   15   16 1
    28   15   31 1
    29   15   52 1
    30   16   17 1
    31   16   53 1
    32   16   54 1
    33   17   22 ar
    34   17   18 ar
    35   18   19 ar
    36   18   55 1
    37   19   20 ar
    38   19   56 1
    39   20   21 ar
    40   20   23 1
    41   21   22 ar
    42   21   57 1
    43   22   58 1
    44   23   28 1
    45   23   24 1
    46   23   59 1
    47   24   25 1
    48   24   60 1
    49   24   61 1
    50   25   26 1
    51   25   27 2
    52   27   28 1
    53   28   29 2
    54   28   30 2
    55   31   32 1
    56   31   62 1
    57   32   33 2
    58   32   34 2
    59   32   35 1
    60   35   40 ar
    61   35   36 ar
    62   36   37 ar
    63   36   63 1
    64   37   38 ar
    65   37   64 1
    66   38   39 ar
    67   38   65 1
    68   39   40 ar
    69   39   41 1
    70   40   66 1
@<TRIPOS>MOLECULE
CHEMBL403746__7
   66    70     0     0     0
SMALL
USER_CHARGES

@<TRIPOS>ATOM
      1 C1         -0.0167    1.3781    0.0096 C.ar      1 <0>        -0.1285
      2 C2          1.1709    2.0855    0.0021 C.ar      1 <0>        -0.1202
      3 C3          2.3773    1.4107   -0.0130 C.ar      1 <0>        -0.1189
      4 C4          2.3960    0.0285   -0.0201 C.ar      1 <0>        -0.0779
      5 C5          1.2084   -0.6789   -0.0117 C.ar      1 <0>        -0.1156
      6 C6          0.0021   -0.0041    0.0020 C.ar      1 <0>        -0.1190
      7 C7          3.7112   -0.7071   -0.0376 C.3       1 <0>        -0.0740
      8 C8          4.1714   -0.9633    1.3989 C.3       1 <0>        -0.0233
      9 C9          5.4865   -1.6989    1.3815 C.2       1 <0>         0.0009
     10 C10         6.6179   -1.3121    2.0010 C.2       1 <0>        -0.0428
     11 N1          7.5641   -2.2626    1.7273 N.pl3     1 <0>        -0.5532
     12 C11         6.9776   -3.1978    0.9495 C.2       1 <0>         0.1931
     13 N2          5.7337   -2.8567    0.7510 N.2       1 <0>        -0.4618
     14 H1          8.4841   -2.2641    2.0347 H         1 <0>         0.4208
     15 C12         7.6469   -4.4337    0.4058 C.3       1 <0>         0.2531
     16 C13         6.8441   -5.6703    0.8147 C.3       1 <0>        -0.0700
     17 C14         7.5770   -6.9123    0.3772 C.ar      1 <0>        -0.0956
     18 C15         7.3397   -7.4503   -0.8739 C.ar      1 <0>        -0.1105
     19 C16         8.0119   -8.5895   -1.2752 C.ar      1 <0>        -0.1117
     20 C17         8.9219   -9.1905   -0.4257 C.ar      1 <0>        -0.0357
     21 C18         9.1599   -8.6520    0.8250 C.ar      1 <0>        -0.1012
     22 C19         8.4908   -7.5103    1.2247 C.ar      1 <0>        -0.1043
     23 C20         9.6541  -10.4330   -0.8629 C.3       1 <0>        -0.5519
     24 C21        11.1872  -10.2993   -0.6478 C.3       1 <0>        -0.1435
     25 C22        11.5311  -10.9089    0.6778 C.2       1 <0>         0.4337
     26 O1         12.7107  -10.6222    1.2668 O.3       1 <0>        -0.6599
     27 N3         10.7040  -11.7024    1.2518 N.2       1 <0>        -0.9076
     28 S1          9.3449  -11.8406    0.2829 S.o2      1 <0>         2.4551
     29 O2          8.2371  -11.5719    1.1313 O.2       1 <0>        -0.9703
     30 O3          9.4768  -13.0841   -0.3920 O.2       1 <0>        -0.9919
     31 N4          7.7085   -4.3528   -1.0557 N.pl3     1 <0>        -1.0952
     32 S2          9.0702   -3.7697   -1.7960 S.o2      1 <0>         2.6937
     33 O4          8.8341   -3.8417   -3.1954 O.2       1 <0>        -0.9525
     34 O5          9.3994   -2.5526   -1.1406 O.2       1 <0>        -0.9535
     35 C23        10.3770   -4.8990   -1.4471 C.ar      1 <0>        -0.6530
     36 C24        11.1577   -4.7253   -0.3192 C.ar      1 <0>        -0.0382
     37 C25        12.1831   -5.6104   -0.0441 C.ar      1 <0>        -0.1034
     38 C26        12.4296   -6.6700   -0.8968 C.ar      1 <0>        -0.0893
     39 C27        11.6486   -6.8449   -2.0264 C.ar      1 <0>         0.0904
     40 C28        10.6176   -5.9610   -2.2976 C.ar      1 <0>        -0.0471
     41 F1         11.8888   -7.8799   -2.8607 F         1 <0>        -0.1285
     42 H2         -0.9591    1.9053    0.0259 H         1 <0>         0.1183
     43 H3          1.1563    3.1654    0.0076 H         1 <0>         0.1191
     44 H4          3.3051    1.9634   -0.0196 H         1 <0>         0.1203
     45 H5          1.2231   -1.7588   -0.0176 H         1 <0>         0.1228
     46 H6         -0.9258   -0.5567    0.0082 H         1 <0>         0.1200
     47 H7          3.5884   -1.6586   -0.5549 H         1 <0>         0.0816
     48 H8          4.4573   -0.1052   -0.5563 H         1 <0>         0.0699
     49 H9          4.2941   -0.0118    1.9163 H         1 <0>         0.0731
     50 H10         3.4252   -1.5652    1.9176 H         1 <0>         0.0748
     51 H11         6.7529   -0.4227    2.5986 H         1 <0>         0.1759
     52 H12         8.6571   -4.5068    0.8085 H         1 <0>         0.0973
     53 H13         6.7226   -5.6828    1.8978 H         1 <0>         0.0898
     54 H14         5.8637   -5.6406    0.3394 H         1 <0>         0.0964
     55 H15         6.6287   -6.9807   -1.5376 H         1 <0>         0.1224
     56 H16         7.8260   -9.0102   -2.2524 H         1 <0>         0.1223
     57 H17         9.8706   -9.1217    1.4888 H         1 <0>         0.1275
     58 H18         8.6795   -7.0874    2.2004 H         1 <0>         0.1225
     59 H19         9.4136  -10.6941   -1.8935 H         1 <0>         0.1383
     60 H20        11.7172  -10.8243   -1.4426 H         1 <0>         0.1048
     61 H21        11.4687   -9.2463   -0.6524 H         1 <0>         0.1013
     62 H22         6.9516   -4.6407   -1.5897 H         1 <0>         0.4264
     63 H23        10.9663   -3.8973    0.3473 H         1 <0>         0.1405
     64 H24        12.7923   -5.4738    0.8372 H         1 <0>         0.1441
     65 H25        13.2313   -7.3610   -0.6820 H         1 <0>         0.1500
     66 H26        10.0048   -6.0990   -3.1762 H         1 <0>         0.1499
@<TRIPOS>BOND
     1    1    6 ar
     2    1    2 ar
     3    1   42 1
     4    2    3 ar
     5    2   43 1
     6    3    4 ar
     7    3   44 1
     8    4    5 ar
     9    4    7 1
    10    5    6 ar
    11    5   45 1
    12    6   46 1
    13    7    8 1
    14    7   47 1
    15    7   48 1
    16    8   49 1
    17    8   50 1
    18    8    9 1
    19    9   13 1
    20    9   10 2
    21   10   51 1
    22   10   11 1
    23   11   12 1
    24   11   14 1
    25   12   15 1
    26   12   13 2
    27   15   16 1
    28   15   31 1
    29   15   52 1
    30   16   17 1
    31   16   53 1
    32   16   54 1
    33   17   22 ar
    34   17   18 ar
    35   18   19 ar
    36   18   55 1
    37   19   20 ar
    38   19   56 1
    39   20   21 ar
    40   20   23 1
    41   21   22 ar
    42   21   57 1
    43   22   58 1
    44   23   28 1
    45   23   24 1
    46   23   59 1
    47   24   25 1
    48   24   60 1
    49   24   61 1
    50   25   26 1
    51   25   27 2
    52   27   28 1
    53   28   29 2
    54   28   30 2
    55   31   32 1
    56   31   62 1
    57   32   33 2
    58   32   34 2
    59   32   35 1
    60   35   40 ar
    61   35   36 ar
    62   36   37 ar
    63   36   63 1
    64   37   38 ar
    65   37   64 1
    66   38   39 ar
    67   38   65 1
    68   39   40 ar
    69   39   41 1
    70   40   66 1
@<TRIPOS>MOLECULE
CHEMBL23989
   47    50     0     0     0
SMALL
USER_CHARGES

@<TRIPOS>ATOM
      1 C1         -0.0187    1.5258    0.0104 C.3       1 <0>        -0.1543
      2 C2          0.0021   -0.0041    0.0020 C.3       1 <0>        -0.1247
      3 C3          0.7182   -0.4975   -1.2568 C.3       1 <0>        -0.1177
      4 C4          0.7390   -2.0273   -1.2652 C.3       1 <0>        -0.0513
      5 C5          1.4443   -2.5133   -2.5051 C.2       1 <0>         0.0473
      6 C6          2.7591   -2.7558   -2.5944 C.2       1 <0>        -0.1701
      7 C7          2.9995   -3.2067   -3.9704 C.ar      1 <0>        -0.1172
      8 C8          4.1300   -3.6047   -4.6824 C.ar      1 <0>        -0.0728
      9 C9          4.0097   -3.9764   -5.9928 C.ar      1 <0>        -0.1336
     10 C10         2.7707   -3.9592   -6.6169 C.ar      1 <0>        -0.0950
     11 C11         1.6418   -3.5686   -5.9289 C.ar      1 <0>        -0.1056
     12 C12         1.7420   -3.1876   -4.5966 C.ar      1 <0>         0.0513
     13 O1          0.8447   -2.7720   -3.6803 O.3       1 <0>        -0.1898
     14 C13         3.7849   -2.5974   -1.5018 C.3       1 <0>        -0.0096
     15 C14         3.9061   -3.8893   -0.7354 C.ar      1 <0>        -0.0711
     16 C15         3.0888   -4.1097    0.3719 C.ar      1 <0>        -0.0961
     17 C16         3.1731   -5.2654    1.0856 C.ar      1 <0>        -0.1102
     18 C17         4.0969   -6.2534    0.7031 C.ar      1 <0>        -0.0196
     19 C18         4.9283   -6.0294   -0.4232 C.ar      1 <0>        -0.0530
     20 C19         4.8081   -4.8253   -1.1384 C.ar      1 <0>        -0.0904
     21 C20         5.8523   -7.0152   -0.8091 C.ar      1 <0>        -0.0695
     22 C21         5.9426   -8.1736   -0.1021 C.ar      1 <0>        -0.1392
     23 C22         5.1264   -8.4029    1.0094 C.ar      1 <0>         0.1470
     24 C23         4.2109   -7.4586    1.4161 C.ar      1 <0>        -0.1176
     25 Br1         3.1138   -7.7820    2.9220 Br        1 <0>        -0.0289
     26 O2          5.2382   -9.5704    1.6961 O.3       1 <0>        -0.4861
     27 H1          1.0039    1.9031    0.0027 H         1 <0>         0.0548
     28 H2         -0.5459    1.8868   -0.8726 H         1 <0>         0.0545
     29 H3         -0.5289    1.8773    0.9072 H         1 <0>         0.0561
     30 H4          0.5293   -0.3651    0.8851 H         1 <0>         0.0644
     31 H5         -1.0205   -0.3814    0.0098 H         1 <0>         0.0646
     32 H6          0.1910   -0.1364   -2.1398 H         1 <0>         0.0684
     33 H7          1.7408   -0.1202   -1.2645 H         1 <0>         0.0689
     34 H8          1.2661   -2.3884   -0.3821 H         1 <0>         0.0970
     35 H9         -0.2836   -2.4046   -1.2575 H         1 <0>         0.0869
     36 H10         5.0968   -3.6190   -4.2012 H         1 <0>         0.1242
     37 H11         4.8848   -4.2849   -6.5455 H         1 <0>         0.1293
     38 H12         2.6899   -4.2545   -7.6526 H         1 <0>         0.1351
     39 H13         0.6822   -3.5586   -6.4244 H         1 <0>         0.1316
     40 H14         4.7492   -2.3445   -1.9426 H         1 <0>         0.0863
     41 H15         3.4748   -1.8012   -0.8250 H         1 <0>         0.0870
     42 H16         2.3784   -3.3521    0.6681 H         1 <0>         0.1272
     43 H17         2.5337   -5.4224    1.9416 H         1 <0>         0.1361
     44 H18         5.4312   -4.6422   -2.0013 H         1 <0>         0.1302
     45 H19         6.4896   -6.8535   -1.6659 H         1 <0>         0.1388
     46 H20         6.6548   -8.9273   -0.4039 H         1 <0>         0.1401
     47 H21         5.8806   -9.5419    2.4184 H         1 <0>         0.3963
@<TRIPOS>BOND
     1    1    2 1
     2    1   27 1
     3    1   28 1
     4    1   29 1
     5    2    3 1
     6    2   30 1
     7    2   31 1
     8    3    4 1
     9    3   32 1
    10    3   33 1
    11    4    5 1
    12    4   34 1
    13    4   35 1
    14    5   13 1
    15    5    6 2
    16    6    7 1
    17    6   14 1
    18    7   12 ar
    19    7    8 ar
    20    8    9 ar
    21    8   36 1
    22    9   10 ar
    23    9   37 1
    24   10   11 ar
    25   10   38 1
    26   11   12 ar
    27   11   39 1
    28   12   13 1
    29   14   15 1
    30   14   40 1
    31   14   41 1
    32   15   20 ar
    33   15   16 ar
    34   16   17 ar
    35   16   42 1
    36   17   18 ar
    37   17   43 1
    38   18   24 ar
    39   18   19 ar
    40   19   20 ar
    41   19   21 ar
    42   20   44 1
    43   21   22 ar
    44   21   45 1
    45   22   23 ar
    46   22   46 1
    47   23   24 ar
    48   23   26 1
    49   24   25 1
    50   26   47 1
@<TRIPOS>MOLECULE
CHEMBL584481
   61    65     0     0     0
SMALL
USER_CHARGES

@<TRIPOS>ATOM
      1 C1         -0.0167    1.3786    0.0096 C.ar      1 <0>        -0.1226
      2 C2          1.1696    2.0892    0.0021 C.ar      1 <0>        -0.0970
      3 C3          2.3774    1.4195   -0.0134 C.ar      1 <0>        -0.1128
      4 C4          2.3996    0.0310   -0.0211 C.ar      1 <0>         0.1458
      5 C5          1.2065   -0.6797   -0.0130 C.ar      1 <0>        -0.1356
      6 C6          0.0021   -0.0041    0.0020 C.ar      1 <0>        -0.0894
      7 N1          3.6227   -0.6513   -0.0373 N.pl3     1 <0>        -0.3030
      8 C7          3.7638   -1.9902   -0.0512 C.2       1 <0>         0.1104
      9 C8          5.1174   -2.2722   -0.0646 C.2       1 <0>        -0.2274
     10 C9          5.8092   -0.9775   -0.0577 C.2       1 <0>         0.1743
     11 N2          4.8822   -0.0456   -0.0475 N.2       1 <0>        -0.2710
     12 C10         7.2752   -0.7618   -0.0668 C.ar      1 <0>        -0.0638
     13 C11         8.1161   -1.6479    0.6061 C.ar      1 <0>        -0.0520
     14 C12         9.4798   -1.4442    0.5957 C.ar      1 <0>        -0.1439
     15 C13        10.0160   -0.3585   -0.0837 C.ar      1 <0>         0.1475
     16 C14         9.1816    0.5258   -0.7542 C.ar      1 <0>        -0.2089
     17 C15         7.8175    0.3245   -0.7530 C.ar      1 <0>        -0.0397
     18 O1         11.3602   -0.1607   -0.0920 O.3       1 <0>        -0.3059
     19 C16        11.8443    0.9758   -0.8103 C.3       1 <0>         0.1044
     20 C17        13.3468    1.0317   -0.7086 C.ar      1 <0>        -0.1275
     21 C18        14.0284    0.0601   -0.0001 C.ar      1 <0>        -0.0687
     22 C19        15.4066    0.1111    0.0933 C.ar      1 <0>        -0.1275
     23 C20        16.1049    1.1338   -0.5218 C.ar      1 <0>        -0.0888
     24 C21        15.4257    2.1058   -1.2310 C.ar      1 <0>        -0.1521
     25 C22        14.0454    2.0529   -1.3297 C.ar      1 <0>         0.1043
     26 F1         13.3806    3.0002   -2.0267 F         1 <0>        -0.1373
     27 C23         5.7385   -3.6007   -0.0818 C.2       1 <0>         0.1241
     28 C24         4.9602   -4.7145   -0.0864 C.2       1 <0>        -0.2466
     29 C25         5.3531   -6.1350   -0.0967 C.2       1 <0>         0.5415
     30 O2          6.5223   -6.4745   -0.1026 O.2       1 <0>        -0.4462
     31 N3          4.3728   -7.0226   -0.0987 N.am      1 <0>        -0.5104
     32 C26         3.0788   -6.6424   -0.0921 C.2       1 <0>         0.2866
     33 S1          1.6801   -7.6296   -0.0934 S.2       1 <0>        -0.3254
     34 S2          3.1785   -4.8597   -0.0736 S.3       1 <0>         0.0136
     35 C27         4.6997   -8.4506   -0.1088 C.3       1 <0>         0.1095
     36 C28         4.8186   -8.9568    1.3302 C.3       1 <0>        -0.6916
     37 S3          5.2234  -10.7250    1.3177 S.o2      1 <0>         2.6427
     38 O3          5.3672  -11.2228    2.6769 O.2       1 <0>        -1.0556
     39 O4          4.1965  -11.4762    0.6125 O.2       1 <0>        -1.0484
     40 O5          6.4910  -10.8161    0.6100 O.3       1 <0>        -1.0599
     41 H1         -0.9598    1.9047    0.0260 H         1 <0>         0.1312
     42 H2          1.1517    3.1691    0.0080 H         1 <0>         0.1339
     43 H3          3.3035    1.9750   -0.0200 H         1 <0>         0.1394
     44 H4          1.2205   -1.7596   -0.0193 H         1 <0>         0.1331
     45 H5         -0.9261   -0.5562    0.0079 H         1 <0>         0.1378
     46 H6          2.9628   -2.7146   -0.0515 H         1 <0>         0.1888
     47 H7          7.6996   -2.4924    1.1350 H         1 <0>         0.1389
     48 H8         10.1315   -2.1298    1.1168 H         1 <0>         0.1421
     49 H9          9.6018    1.3697   -1.2811 H         1 <0>         0.1340
     50 H10         7.1694    1.0098   -1.2791 H         1 <0>         0.1326
     51 H11        11.5538    0.8944   -1.8577 H         1 <0>         0.0820
     52 H12        11.4173    1.8837   -0.3843 H         1 <0>         0.0814
     53 H13        13.4840   -0.7389    0.4810 H         1 <0>         0.1441
     54 H14        15.9383   -0.6483    0.6474 H         1 <0>         0.1337
     55 H15        17.1816    1.1730   -0.4475 H         1 <0>         0.1347
     56 H16        15.9713    2.9047   -1.7111 H         1 <0>         0.1384
     57 H17         6.8145   -3.6937   -0.0909 H         1 <0>         0.1669
     58 H18         3.9114   -9.0002   -0.6232 H         1 <0>         0.1221
     59 H19         5.6465   -8.6030   -0.6270 H         1 <0>         0.1191
     60 H20         5.6070   -8.4072    1.8446 H         1 <0>         0.1105
     61 H21         3.8719   -8.8044    1.8484 H         1 <0>         0.1098
@<TRIPOS>BOND
     1    1    6 ar
     2    1    2 ar
     3    1   41 1
     4    2    3 ar
     5    2   42 1
     6    3    4 ar
     7    3   43 1
     8    4    5 ar
     9    4    7 1
    10    5    6 ar
    11    5   44 1
    12    6   45 1
    13    7   11 1
    14    7    8 1
    15    8    9 2
    16    8   46 1
    17    9   10 1
    18    9   27 1
    19   10   11 2
    20   10   12 1
    21   12   17 ar
    22   12   13 ar
    23   13   14 ar
    24   13   47 1
    25   14   15 ar
    26   14   48 1
    27   15   16 ar
    28   15   18 1
    29   16   17 ar
    30   16   49 1
    31   17   50 1
    32   18   19 1
    33   19   20 1
    34   19   51 1
    35   19   52 1
    36   20   25 ar
    37   20   21 ar
    38   21   22 ar
    39   21   53 1
    40   22   23 ar
    41   22   54 1
    42   23   24 ar
    43   23   55 1
    44   24   25 ar
    45   24   56 1
    46   25   26 1
    47   27   28 2
    48   27   57 1
    49   28   34 1
    50   28   29 1
    51   29   30 2
    52   29   31 am
    53   31   32 1
    54   31   35 1
    55   32   33 2
    56   32   34 1
    57   35   36 1
    58   35   58 1
    59   35   59 1
    60   36   37 1
    61   36   60 1
    62   36   61 1
    63   37   38 2
    64   37   39 2
    65   37   40 1
@<TRIPOS>MOLECULE
CHEMBL212232
   41    43     0     0     0
SMALL
USER_CHARGES

@<TRIPOS>ATOM
      1 C1         -0.0417    1.3251   -0.4732 C.ar      1 <0>        -0.0957
      2 C2          1.0957    1.9440   -0.9609 C.ar      1 <0>        -0.1282
      3 C3          2.2993    1.2699   -0.9749 C.ar      1 <0>        -0.0581
      4 C4          2.3680   -0.0393   -0.4957 C.ar      1 <0>        -0.1313
      5 C5          1.2168   -0.6578   -0.0050 C.ar      1 <0>        -0.0863
      6 C6          0.0195    0.0276    0.0033 C.ar      1 <0>        -0.1276
      7 C7          3.6541   -0.7678   -0.5081 C.2       1 <0>         0.5547
      8 O1          4.6549   -0.2268   -0.9363 O.2       1 <0>        -0.5127
      9 N1          3.7171   -2.0318   -0.0446 N.am      1 <0>        -0.6642
     10 C8          4.9065   -2.7557   -0.1504 C.ar      1 <0>         0.1323
     11 C9          6.1284   -2.1077   -0.0051 C.ar      1 <0>        -0.1159
     12 C10         7.3036   -2.8188   -0.1088 C.ar      1 <0>        -0.0820
     13 C11         7.2670   -4.1925   -0.3599 C.ar      1 <0>         0.0058
     14 C12         6.0379   -4.8404   -0.5049 C.ar      1 <0>        -0.0713
     15 C13         4.8663   -4.1241   -0.3951 C.ar      1 <0>        -0.1381
     16 C14         8.5248   -4.9580   -0.4722 C.2       1 <0>        -0.1375
     17 C15         8.8609   -6.1670    0.1149 C.2       1 <0>        -0.1131
     18 C16        10.0997   -6.6991   -0.1329 C.2       1 <0>         0.0991
     19 C17        10.9690   -5.9949   -0.9694 C.2       1 <0>        -0.1393
     20 S1          9.9946   -4.5642   -1.4052 S.3       1 <0>         0.1414
     21 C18        12.2770   -6.3299   -1.3697 C.2       1 <0>         0.4863
     22 O2         12.8384   -7.4583   -0.9357 O.co2     1 <0>        -0.6351
     23 O3         12.9536   -5.5186   -2.1827 O.co2     1 <0>        -0.7104
     24 O4         10.4724   -7.8808    0.4211 O.3       1 <0>        -0.2666
     25 C19        10.1823   -9.0661   -0.3225 C.3       1 <0>         0.0206
     26 C20        10.6652  -10.2706    0.4437 C.2       1 <0>         0.5127
     27 O5         11.2076  -10.1273    1.5262 O.co2     1 <0>        -0.6721
     28 O6         10.5136  -11.3884   -0.0190 O.co2     1 <0>        -0.7088
     29 Br1         7.6338   -7.0661    1.2381 Br        1 <0>        -0.0366
     30 H1         -0.9805    1.8588   -0.4603 H         1 <0>         0.1264
     31 H2          1.0410    2.9568   -1.3317 H         1 <0>         0.1299
     32 H3          3.1863    1.7540   -1.3562 H         1 <0>         0.1382
     33 H4          1.2631   -1.6707    0.3669 H         1 <0>         0.1274
     34 H5         -0.8719   -0.4497    0.3826 H         1 <0>         0.1292
     35 H6          2.9363   -2.4386    0.3624 H         1 <0>         0.4078
     36 H7          6.1559   -1.0456    0.1890 H         1 <0>         0.1394
     37 H8          8.2521   -2.3148    0.0034 H         1 <0>         0.1319
     38 H9          6.0061   -5.9023   -0.6990 H         1 <0>         0.1345
     39 H10         3.9157   -4.6250   -0.5034 H         1 <0>         0.1268
     40 H11         9.1063   -9.1425   -0.4791 H         1 <0>         0.0351
     41 H12        10.6877   -9.0226   -1.2873 H         1 <0>         0.0515
@<TRIPOS>BOND
     1    1    6 ar
     2    1    2 ar
     3    1   30 1
     4    2    3 ar
     5    2   31 1
     6    3    4 ar
     7    3   32 1
     8    4    5 ar
     9    4    7 1
    10    5    6 ar
    11    5   33 1
    12    6   34 1
    13    7    8 2
    14    7    9 am
    15    9   10 1
    16    9   35 1
    17   10   15 ar
    18   10   11 ar
    19   11   12 ar
    20   11   36 1
    21   12   13 ar
    22   12   37 1
    23   13   14 ar
    24   13   16 1
    25   14   15 ar
    26   14   38 1
    27   15   39 1
    28   16   20 1
    29   16   17 2
    30   17   18 1
    31   17   29 1
    32   18   19 2
    33   18   24 1
    34   19   20 1
    35   19   21 1
    36   21   22 2
    37   21   23 1
    38   24   25 1
    39   25   26 1
    40   25   40 1
    41   25   41 1
    42   26   27 2
    43   26   28 1
@<TRIPOS>MOLECULE
CHEMBL261108
   40    42     0     0     0
SMALL
USER_CHARGES

@<TRIPOS>ATOM
      1 C1          0.6309    2.3381    0.0359 C.ar      1 <0>        -0.1107
      2 C2          1.9180    2.8405    0.0785 C.ar      1 <0>        -0.1211
      3 C3          2.9978    1.9776    0.0583 C.ar      1 <0>        -0.0972
      4 C4          2.7904    0.6123   -0.0040 C.ar      1 <0>        -0.1117
      5 C5          1.5032    0.1099   -0.0458 C.ar      1 <0>        -0.0966
      6 C6          0.4235    0.9729   -0.0270 C.ar      1 <0>        -0.1206
      7 C7          3.9675   -0.3284   -0.0270 C.3       1 <0>         0.1636
      8 N1          4.3281   -0.6931    1.3453 N.am      1 <0>        -0.7063
      9 C8          5.3594   -1.5309    1.5711 C.2       1 <0>         0.5817
     10 O1          5.9901   -1.9837    0.6365 O.2       1 <0>        -0.5470
     11 C9          5.7243   -1.8999    2.9599 C.ar      1 <0>         0.0906
     12 C10         6.8042   -2.7687    3.1768 C.ar      1 <0>        -0.1267
     13 C11         7.1503   -3.1163    4.4506 C.ar      1 <0>        -0.0660
     14 C12         6.3993   -2.5817    5.5144 C.ar      1 <0>        -0.0741
     15 C13         6.7002   -2.8962    6.8491 C.ar      1 <0>        -0.1106
     16 C14         5.9517   -2.3597    7.8530 C.ar      1 <0>        -0.0317
     17 C15         4.8884   -1.5006    7.5733 C.ar      1 <0>        -0.1094
     18 C16         4.5680   -1.1743    6.2928 C.ar      1 <0>        -0.0101
     19 C17         5.3182   -1.7080    5.2270 C.ar      1 <0>         0.1313
     20 N2          5.0295   -1.3996    3.9631 N.ar      1 <0>        -0.4073
     21 C18         4.0817   -0.9254    8.7088 C.3       1 <0>        -0.2314
     22 F1          3.6009   -1.9647    9.5125 F         1 <0>        -0.2009
     23 F2          4.8914   -0.0800    9.4748 F         1 <0>        -0.2025
     24 P1          2.6771    0.0229    8.0371 P.3       1 <0>         2.1276
     25 O2          3.2157    1.2550    7.2332 O.2       1 <0>        -1.1280
     26 O3          1.8353   -0.8939    7.0856 O.3       1 <0>        -1.1276
     27 O4          1.7733    0.5226    9.2151 O.3       1 <0>        -1.1338
     28 Br1         6.3589   -2.7855    9.6499 Br        1 <0>        -0.0435
     29 H1         -0.2127    3.0121    0.0561 H         1 <0>         0.1217
     30 H2          2.0801    3.9072    0.1272 H         1 <0>         0.1230
     31 H3          4.0034    2.3701    0.0910 H         1 <0>         0.1233
     32 H4          1.3412   -0.9567   -0.0948 H         1 <0>         0.1237
     33 H5         -0.5821    0.5804   -0.0600 H         1 <0>         0.1233
     34 H6          3.7036   -1.2272   -0.5844 H         1 <0>         0.0759
     35 H7          4.8146    0.1613   -0.5073 H         1 <0>         0.0757
     36 H8          3.8246   -0.3316    2.0914 H         1 <0>         0.4229
     37 H9          7.3598   -3.1618    2.3383 H         1 <0>         0.1463
     38 H10         7.9783   -3.7841    4.6373 H         1 <0>         0.1428
     39 H11         7.5204   -3.5601    7.0788 H         1 <0>         0.1388
     40 H12         3.7414   -0.5084    6.0938 H         1 <0>         0.2023
@<TRIPOS>BOND
     1    1    6 ar
     2    1    2 ar
     3    1   29 1
     4    2    3 ar
     5    2   30 1
     6    3    4 ar
     7    3   31 1
     8    4    5 ar
     9    4    7 1
    10    5    6 ar
    11    5   32 1
    12    6   33 1
    13    7    8 1
    14    7   34 1
    15    7   35 1
    16    8    9 am
    17    8   36 1
    18    9   10 2
    19    9   11 1
    20   11   20 ar
    21   11   12 ar
    22   12   13 ar
    23   12   37 1
    24   13   14 ar
    25   13   38 1
    26   14   19 ar
    27   14   15 ar
    28   15   16 ar
    29   15   39 1
    30   16   17 ar
    31   16   28 1
    32   17   18 ar
    33   17   21 1
    34   18   19 ar
    35   18   40 1
    36   19   20 ar
    37   21   22 1
    38   21   23 1
    39   21   24 1
    40   24   25 2
    41   24   26 1
    42   24   27 1
@<TRIPOS>MOLECULE
CHEMBL58737
   34    36     0     0     0
SMALL
USER_CHARGES

@<TRIPOS>ATOM
      1 C1          3.3482   -4.2989    2.2341 C.ar      1 <0>        -0.0877
      2 C2          4.5475   -3.6113    2.2386 C.ar      1 <0>        -0.1131
      3 C3          4.6880   -2.4418    1.5080 C.ar      1 <0>        -0.0566
      4 C4          3.6157   -1.9592    0.7666 C.ar      1 <0>        -0.1486
      5 C5          2.3911   -2.6576    0.7589 C.ar      1 <0>        -0.0335
      6 C6          2.2700   -3.8321    1.5009 C.ar      1 <0>        -0.1007
      7 C7          1.2577   -2.1490   -0.0225 C.2       1 <0>         0.0277
      8 C8          1.3454   -1.0181   -0.7472 C.2       1 <0>        -0.2336
      9 C9          2.5368   -0.2561   -0.7951 C.2       1 <0>         0.3544
     10 O1          2.5879    0.7612   -1.4577 O.2       1 <0>        -0.3963
     11 C10         3.7345   -0.7153   -0.0217 C.2       1 <0>         0.3569
     12 O2          4.7707   -0.0845   -0.0415 O.2       1 <0>        -0.3871
     13 C11        -0.0403   -2.9146   -0.0137 C.3       1 <0>        -0.0635
     14 C12        -0.9121   -2.4539   -1.1836 C.3       1 <0>        -0.1205
     15 C13        -2.2299   -3.2312   -1.1747 C.3       1 <0>        -0.1198
     16 C14        -2.9653   -2.9731    0.1419 C.3       1 <0>        -0.1236
     17 C15        -2.0936   -3.4338    1.3118 C.3       1 <0>        -0.1191
     18 C16        -0.7758   -2.6565    1.3029 C.3       1 <0>        -0.1128
     19 H1          3.2526   -5.2112    2.8041 H         1 <0>         0.1364
     20 H2          5.3798   -3.9874    2.8151 H         1 <0>         0.1374
     21 H3          5.6265   -1.9074    1.5150 H         1 <0>         0.1414
     22 H4          1.3374   -4.3767    1.5036 H         1 <0>         0.1404
     23 H5          0.4843   -0.6839   -1.3068 H         1 <0>         0.1565
     24 H6          0.1658   -3.9804   -0.1118 H         1 <0>         0.0955
     25 H7         -1.1182   -1.3881   -1.0855 H         1 <0>         0.0719
     26 H8         -0.3882   -2.6378   -2.1216 H         1 <0>         0.0705
     27 H9         -2.8510   -2.9030   -2.0082 H         1 <0>         0.0665
     28 H10        -2.0238   -4.2970   -1.2728 H         1 <0>         0.0641
     29 H11        -3.1715   -1.9072    0.2400 H         1 <0>         0.0634
     30 H12        -3.9042   -3.5268    0.1483 H         1 <0>         0.0638
     31 H13        -2.6175   -3.2499    2.2498 H         1 <0>         0.0667
     32 H14        -1.8875   -4.4996    1.2137 H         1 <0>         0.0643
     33 H15        -0.1547   -2.9847    2.1364 H         1 <0>         0.0691
     34 H16        -0.9819   -1.5907    1.4010 H         1 <0>         0.0696
@<TRIPOS>BOND
     1    1    6 ar
     2    1    2 ar
     3    1   19 1
     4    2    3 ar
     5    2   20 1
     6    3    4 ar
     7    3   21 1
     8    4   11 1
     9    4    5 ar
    10    5    6 ar
    11    5    7 1
    12    6   22 1
    13    7    8 2
    14    7   13 1
    15    8    9 1
    16    8   23 1
    17    9   10 2
    18    9   11 1
    19   11   12 2
    20   13   18 1
    21   13   14 1
    22   13   24 1
    23   14   15 1
    24   14   25 1
    25   14   26 1
    26   15   16 1
    27   15   27 1
    28   15   28 1
    29   16   17 1
    30   16   29 1
    31   16   30 1
    32   17   18 1
    33   17   31 1
    34   17   32 1
    35   18   33 1
    36   18   34 1
@<TRIPOS>MOLECULE
CHEMBL214378
   40    42     0     0     0
SMALL
USER_CHARGES

@<TRIPOS>ATOM
      1 C1          0.0668    1.2502   -0.9348 C.ar      1 <0>        -0.1788
      2 C2          1.2717    1.9306   -0.9608 C.ar      1 <0>        -0.0143
      3 C3          2.4147    1.2741   -0.4890 C.ar      1 <0>        -0.1838
      4 C4          2.2936   -0.0329   -0.0141 C.ar      1 <0>         0.1358
      5 N1          1.1244   -0.6382   -0.0103 N.ar      1 <0>        -0.4871
      6 C5          0.0305   -0.0440   -0.4483 C.ar      1 <0>         0.1202
      7 C6          3.7274    1.9532   -0.4942 C.2       1 <0>         0.5604
      8 O1          3.8213    3.0915   -0.9105 O.2       1 <0>        -0.5096
      9 N2          4.8205    1.3105   -0.0374 N.am      1 <0>        -0.6620
     10 C7          6.0766    1.9121   -0.1367 C.ar      1 <0>         0.1303
     11 C8          6.2015    3.2879    0.0229 C.ar      1 <0>        -0.1150
     12 C9          7.4392    3.8847   -0.0749 C.ar      1 <0>        -0.0825
     13 C10         8.5697    3.1062   -0.3344 C.ar      1 <0>         0.0078
     14 C11         8.4408    1.7244   -0.4937 C.ar      1 <0>        -0.0715
     15 C12         7.2008    1.1334   -0.3895 C.ar      1 <0>        -0.1362
     16 C13         9.8981    3.7426   -0.4404 C.2       1 <0>        -0.1390
     17 C14        11.0944    3.3575    0.1425 C.2       1 <0>        -0.1125
     18 C15        12.2168    4.1069   -0.0975 C.2       1 <0>         0.0991
     19 C16        12.1017    5.2287   -0.9221 C.2       1 <0>        -0.1387
     20 S1         10.3710    5.1984   -1.3584 S.3       1 <0>         0.1416
     21 C17        13.0969    6.1450   -1.3134 C.2       1 <0>         0.4861
     22 O2         14.3490    5.9938   -0.8818 O.co2     1 <0>        -0.6348
     23 O3         12.7868    7.1636   -2.1155 O.co2     1 <0>        -0.7103
     24 O4         13.4103    3.7678    0.4527 O.3       1 <0>        -0.2666
     25 C18        14.2445    2.8852   -0.3004 C.3       1 <0>         0.0204
     26 C19        15.5173    2.6236    0.4628 C.2       1 <0>         0.5129
     27 O5         15.6937    3.1446    1.5508 O.co2     1 <0>        -0.6721
     28 O6         16.3707    1.8909   -0.0078 O.co2     1 <0>        -0.7088
     29 Br1        11.1773    1.8266    1.2495 Br        1 <0>        -0.0361
     30 H1         -0.8364    1.7264   -1.2865 H         1 <0>         0.1440
     31 H2          1.3288    2.9418   -1.3357 H         1 <0>         0.1502
     32 H3          3.1665   -0.5521    0.3530 H         1 <0>         0.1600
     33 H4         -0.9084   -0.5772   -0.4269 H         1 <0>         0.1617
     34 H5          4.7345    0.4300    0.3604 H         1 <0>         0.4083
     35 H6          5.3271    3.8892    0.2235 H         1 <0>         0.1392
     36 H7          7.5354    4.9534    0.0485 H         1 <0>         0.1322
     37 H8          9.3127    1.1197   -0.6948 H         1 <0>         0.1350
     38 H9          7.1010    0.0646   -0.5082 H         1 <0>         0.1279
     39 H10        13.7207    1.9439   -0.4669 H         1 <0>         0.0352
     40 H11        14.4840    3.3425   -1.2605 H         1 <0>         0.0515
@<TRIPOS>BOND
     1    1    6 ar
     2    1    2 ar
     3    1   30 1
     4    2    3 ar
     5    2   31 1
     6    3    4 ar
     7    3    7 1
     8    4    5 ar
     9    4   32 1
    10    5    6 ar
    11    6   33 1
    12    7    8 2
    13    7    9 am
    14    9   10 1
    15    9   34 1
    16   10   15 ar
    17   10   11 ar
    18   11   12 ar
    19   11   35 1
    20   12   13 ar
    21   12   36 1
    22   13   14 ar
    23   13   16 1
    24   14   15 ar
    25   14   37 1
    26   15   38 1
    27   16   20 1
    28   16   17 2
    29   17   18 1
    30   17   29 1
    31   18   19 2
    32   18   24 1
    33   19   20 1
    34   19   21 1
    35   21   22 2
    36   21   23 1
    37   24   25 1
    38   25   26 1
    39   25   39 1
    40   25   40 1
    41   26   27 2
    42   26   28 1
@<TRIPOS>MOLECULE
CHEMBL24695
   66    70     0     0     0
SMALL
USER_CHARGES

@<TRIPOS>ATOM
      1 C1         -1.1248    1.1353   -1.6197 C.3       1 <0>        -0.1530
      2 C2         -1.0839   -0.3910   -1.5219 C.3       1 <0>        -0.1247
      3 C3         -0.1357   -0.8046   -0.3947 C.3       1 <0>        -0.1180
      4 C4         -0.0948   -2.3310   -0.2969 C.3       1 <0>        -0.0400
      5 C5          0.8391   -2.7384    0.8134 C.2       1 <0>        -0.1031
      6 C6          0.5481   -2.9479    2.1190 C.2       1 <0>        -0.0678
      7 C7          1.6246   -3.3423    3.0272 C.ar      1 <0>        -0.0696
      8 C8          1.5556   -3.6109    4.4129 C.ar      1 <0>        -0.0720
      9 C9          2.6683   -3.9681    5.1087 C.ar      1 <0>        -0.1225
     10 C10         3.9052   -4.0823    4.4889 C.ar      1 <0>        -0.0992
     11 C11         4.0131   -3.8285    3.1361 C.ar      1 <0>        -0.0796
     12 C12         2.8911   -3.4650    2.4210 C.ar      1 <0>        -0.1153
     13 S1          2.5883   -3.0668    0.7190 S.3       1 <0>         0.0232
     14 C13        -0.8360   -2.7801    2.6189 C.ar      1 <0>        -0.0507
     15 C14        -1.4394   -1.5220    2.5938 C.ar      1 <0>        -0.0959
     16 C15        -2.7265   -1.3665    3.0583 C.ar      1 <0>        -0.1200
     17 C16        -3.4269   -2.4661    3.5541 C.ar      1 <0>        -0.0065
     18 C17        -2.8239   -3.7237    3.5797 C.ar      1 <0>        -0.1208
     19 C18        -1.5391   -3.8812    3.1097 C.ar      1 <0>        -0.0969
     20 C19        -4.8125   -2.2982    4.0545 C.ar      1 <0>        -0.1194
     21 C20        -5.4186   -1.0429    4.0248 C.ar      1 <0>        -0.0604
     22 C21        -6.7074   -0.8900    4.4910 C.ar      1 <0>        -0.2011
     23 C22        -7.4013   -1.9843    4.9895 C.ar      1 <0>         0.1804
     24 C23        -6.8004   -3.2355    5.0209 C.ar      1 <0>        -0.1661
     25 C24        -5.5141   -3.3962    4.5505 C.ar      1 <0>        -0.0663
     26 O1         -8.6711   -1.8304    5.4481 O.3       1 <0>        -0.2881
     27 C25        -9.1860   -0.4983    5.4975 C.3       1 <0>         0.0228
     28 C26       -10.2976   -0.4197    6.5458 C.3       1 <0>        -0.0637
     29 C27        -9.7174   -0.6737    7.9132 C.ar      1 <0>        -0.0703
     30 C28        -9.6519   -1.9630    8.4077 C.ar      1 <0>        -0.1035
     31 C29        -9.1197   -2.1960    9.6620 C.ar      1 <0>        -0.1225
     32 C30        -8.6525   -1.1399   10.4217 C.ar      1 <0>        -0.1328
     33 C31        -8.7171    0.1493    9.9269 C.ar      1 <0>        -0.1229
     34 C32        -9.2454    0.3818    8.6708 C.ar      1 <0>        -0.1196
     35 C33        -9.7413   -0.1241    4.1474 C.2       1 <0>         0.4810
     36 O2         -9.7834   -0.9531    3.2544 O.co2     1 <0>        -0.6697
     37 O3        -10.1486    1.0077    3.9482 O.co2     1 <0>        -0.6891
     38 H1         -0.1241    1.5129   -1.8298 H         1 <0>         0.0521
     39 H2         -1.8003    1.4300   -2.4228 H         1 <0>         0.0551
     40 H3         -1.4791    1.5505   -0.6762 H         1 <0>         0.0554
     41 H4         -2.0846   -0.7685   -1.3119 H         1 <0>         0.0662
     42 H5         -0.7296   -0.8061   -2.4655 H         1 <0>         0.0614
     43 H6          0.8650   -0.4271   -0.6048 H         1 <0>         0.0644
     44 H7         -0.4900   -0.3895    0.5488 H         1 <0>         0.0710
     45 H8         -1.0955   -2.7085   -0.0869 H         1 <0>         0.0912
     46 H9          0.2595   -2.7461   -1.2405 H         1 <0>         0.0802
     47 H10         0.6084   -3.5311    4.9255 H         1 <0>         0.1258
     48 H11         2.5878   -4.1671    6.1672 H         1 <0>         0.1266
     49 H12         4.7762   -4.3670    5.0605 H         1 <0>         0.1326
     50 H13         4.9694   -3.9136    2.6414 H         1 <0>         0.1295
     51 H14        -0.8969   -0.6704    2.2106 H         1 <0>         0.1225
     52 H15        -3.1936   -0.3929    3.0389 H         1 <0>         0.1265
     53 H16        -3.3663   -4.5747    3.9644 H         1 <0>         0.1260
     54 H17        -1.0740   -4.8558    3.1252 H         1 <0>         0.1192
     55 H18        -4.8793   -0.1912    3.6374 H         1 <0>         0.1214
     56 H19        -7.1774    0.0821    4.4685 H         1 <0>         0.1295
     57 H20        -7.3426   -4.0847    5.4097 H         1 <0>         0.1272
     58 H21        -5.0490   -4.3708    4.5704 H         1 <0>         0.1247
     59 H22        -8.3851    0.1912    5.7647 H         1 <0>         0.0669
     60 H23       -10.7504    0.5715    6.5217 H         1 <0>         0.0964
     61 H24       -11.0564   -1.1712    6.3278 H         1 <0>         0.0787
     62 H25       -10.0169   -2.7881    7.8141 H         1 <0>         0.1227
     63 H26        -9.0692   -3.2032   10.0485 H         1 <0>         0.1171
     64 H27        -8.2373   -1.3219   11.4019 H         1 <0>         0.1153
     65 H28        -8.3524    0.9745   10.5206 H         1 <0>         0.1171
     66 H29        -9.2925    1.3886    8.2827 H         1 <0>         0.1212
@<TRIPOS>BOND
     1    1    2 1
     2    1   38 1
     3    1   39 1
     4    1   40 1
     5    2    3 1
     6    2   41 1
     7    2   42 1
     8    3    4 1
     9    3   43 1
    10    3   44 1
    11    4    5 1
    12    4   45 1
    13    4   46 1
    14    5   13 1
    15    5    6 2
    16    6    7 1
    17    6   14 1
    18    7   12 ar
    19    7    8 ar
    20    8    9 ar
    21    8   47 1
    22    9   10 ar
    23    9   48 1
    24   10   11 ar
    25   10   49 1
    26   11   12 ar
    27   11   50 1
    28   12   13 1
    29   14   19 ar
    30   14   15 ar
    31   15   16 ar
    32   15   51 1
    33   16   17 ar
    34   16   52 1
    35   17   18 ar
    36   17   20 1
    37   18   19 ar
    38   18   53 1
    39   19   54 1
    40   20   25 ar
    41   20   21 ar
    42   21   22 ar
    43   21   55 1
    44   22   23 ar
    45   22   56 1
    46   23   24 ar
    47   23   26 1
    48   24   25 ar
    49   24   57 1
    50   25   58 1
    51   26   27 1
    52   27   28 1
    53   27   35 1
    54   27   59 1
    55   28   29 1
    56   28   60 1
    57   28   61 1
    58   29   34 ar
    59   29   30 ar
    60   30   31 ar
    61   30   62 1
    62   31   32 ar
    63   31   63 1
    64   32   33 ar
    65   32   64 1
    66   33   34 ar
    67   33   65 1
    68   34   66 1
    69   35   36 2
    70   35   37 1
@<TRIPOS>MOLECULE
CHEMBL24695__1
   66    70     0     0     0
SMALL
USER_CHARGES

@<TRIPOS>ATOM
      1 C1          0.2135    2.1443    0.8695 C.3       1 <0>        -0.1533
      2 C2          0.1875    0.6409    0.5864 C.3       1 <0>        -0.1239
      3 C3          0.8804   -0.1052    1.7284 C.3       1 <0>        -0.1188
      4 C4          0.8545   -1.6085    1.4452 C.3       1 <0>        -0.0388
      5 C5          1.5369   -2.3434    2.5701 C.2       1 <0>        -0.1053
      6 C6          0.9865   -2.8372    3.7044 C.2       1 <0>        -0.0661
      7 C7          1.8491   -3.5221    4.6666 C.ar      1 <0>        -0.0704
      8 C8          1.4987   -4.1099    5.9032 C.ar      1 <0>        -0.0715
      9 C9          2.4399   -4.7106    6.6797 C.ar      1 <0>        -0.1221
     10 C10         3.7710   -4.7694    6.2902 C.ar      1 <0>        -0.0985
     11 C11         4.1527   -4.2069    5.0885 C.ar      1 <0>        -0.0801
     12 C12         3.2064   -3.5949    4.2935 C.ar      1 <0>        -0.1148
     13 S1          3.2592   -2.7763    2.7205 S.3       1 <0>         0.0223
     14 C13        -0.4633   -2.6861    3.9662 C.ar      1 <0>        -0.0511
     15 C14        -1.0111   -1.4153    4.1473 C.ar      1 <0>        -0.0958
     16 C15        -2.3594   -1.2752    4.3903 C.ar      1 <0>        -0.1200
     17 C16        -3.1774   -2.4031    4.4559 C.ar      1 <0>        -0.0062
     18 C17        -2.6302   -3.6734    4.2754 C.ar      1 <0>        -0.1209
     19 C18        -1.2831   -3.8139    4.0262 C.ar      1 <0>        -0.0969
     20 C19        -4.6289   -2.2518    4.7180 C.ar      1 <0>        -0.1195
     21 C20        -5.1786   -0.9825    4.8934 C.ar      1 <0>        -0.0608
     22 C21        -6.5289   -0.8451    5.1371 C.ar      1 <0>        -0.1991
     23 C22        -7.3409   -1.9690    5.2079 C.ar      1 <0>         0.1816
     24 C23        -6.7966   -3.2344    5.0341 C.ar      1 <0>        -0.1664
     25 C24        -5.4481   -3.3781    4.7839 C.ar      1 <0>        -0.0666
     26 O1         -8.6711   -1.8304    5.4481 O.3       1 <0>        -0.2887
     27 C25        -9.1860   -0.4983    5.4975 C.3       1 <0>         0.0227
     28 C26       -10.6777   -0.5152    5.1576 C.3       1 <0>        -0.0634
     29 C27       -10.8626   -0.9615    3.7301 C.ar      1 <0>        -0.0703
     30 C28       -10.8715   -0.0287    2.7099 C.ar      1 <0>        -0.1197
     31 C29       -11.0411   -0.4380    1.4005 C.ar      1 <0>        -0.1229
     32 C30       -11.2013   -1.7802    1.1112 C.ar      1 <0>        -0.1329
     33 C31       -11.1915   -2.7131    2.1313 C.ar      1 <0>        -0.1225
     34 C32       -11.0176   -2.3042    3.4403 C.ar      1 <0>        -0.1037
     35 C33        -8.9927    0.0640    6.8822 C.2       1 <0>         0.4807
     36 O2         -8.4630   -0.6132    7.7467 O.co2     1 <0>        -0.6697
     37 O3         -9.3659    1.1962    7.1380 O.co2     1 <0>        -0.6888
     38 H1          1.2470    2.4812    0.9494 H         1 <0>         0.0526
     39 H2         -0.2801    2.6758    0.0559 H         1 <0>         0.0544
     40 H3         -0.3080    2.3468    1.8050 H         1 <0>         0.0556
     41 H4         -0.8460    0.3040    0.5065 H         1 <0>         0.0652
     42 H5          0.7090    0.4383   -0.3491 H         1 <0>         0.0612
     43 H6          1.9140    0.2317    1.8082 H         1 <0>         0.0647
     44 H7          0.3589    0.0974    2.6639 H         1 <0>         0.0714
     45 H8         -0.1791   -1.9454    1.3654 H         1 <0>         0.0904
     46 H9          1.3760   -1.8111    0.5097 H         1 <0>         0.0797
     47 H10         0.4715   -4.0814    6.2355 H         1 <0>         0.1263
     48 H11         2.1451   -5.1513    7.6206 H         1 <0>         0.1271
     49 H12         4.5023   -5.2510    6.9224 H         1 <0>         0.1328
     50 H13         5.1850   -4.2456    4.7735 H         1 <0>         0.1294
     51 H14        -0.3777   -0.5420    4.0972 H         1 <0>         0.1224
     52 H15        -2.7834   -0.2918    4.5304 H         1 <0>         0.1265
     53 H16        -3.2637   -4.5465    4.3270 H         1 <0>         0.1260
     54 H17        -0.8602   -4.7972    3.8818 H         1 <0>         0.1192
     55 H18        -4.5474   -0.1079    4.8389 H         1 <0>         0.1212
     56 H19        -6.9552    0.1378    5.2734 H         1 <0>         0.1287
     57 H20        -7.4308   -4.1067    5.0900 H         1 <0>         0.1269
     58 H21        -5.0262   -4.3623    4.6437 H         1 <0>         0.1246
     59 H22        -8.6559    0.1231    4.7757 H         1 <0>         0.0670
     60 H23       -11.1943   -1.2058    5.8240 H         1 <0>         0.0780
     61 H24       -11.0899    0.4862    5.2815 H         1 <0>         0.0974
     62 H25       -10.7463    1.0200    2.9360 H         1 <0>         0.1212
     63 H26       -11.0488    0.2908    0.6036 H         1 <0>         0.1171
     64 H27       -11.3346   -2.1000    0.0883 H         1 <0>         0.1152
     65 H28       -11.3170   -3.7617    1.9053 H         1 <0>         0.1170
     66 H29       -11.0062   -3.0334    4.2368 H         1 <0>         0.1225
@<TRIPOS>BOND
     1    1    2 1
     2    1   38 1
     3    1   39 1
     4    1   40 1
     5    2    3 1
     6    2   41 1
     7    2   42 1
     8    3    4 1
     9    3   43 1
    10    3   44 1
    11    4    5 1
    12    4   45 1
    13    4   46 1
    14    5   13 1
    15    5    6 2
    16    6    7 1
    17    6   14 1
    18    7   12 ar
    19    7    8 ar
    20    8    9 ar
    21    8   47 1
    22    9   10 ar
    23    9   48 1
    24   10   11 ar
    25   10   49 1
    26   11   12 ar
    27   11   50 1
    28   12   13 1
    29   14   19 ar
    30   14   15 ar
    31   15   16 ar
    32   15   51 1
    33   16   17 ar
    34   16   52 1
    35   17   18 ar
    36   17   20 1
    37   18   19 ar
    38   18   53 1
    39   19   54 1
    40   20   25 ar
    41   20   21 ar
    42   21   22 ar
    43   21   55 1
    44   22   23 ar
    45   22   56 1
    46   23   24 ar
    47   23   26 1
    48   24   25 ar
    49   24   57 1
    50   25   58 1
    51   26   27 1
    52   27   28 1
    53   27   35 1
    54   27   59 1
    55   28   29 1
    56   28   60 1
    57   28   61 1
    58   29   34 ar
    59   29   30 ar
    60   30   31 ar
    61   30   62 1
    62   31   32 ar
    63   31   63 1
    64   32   33 ar
    65   32   64 1
    66   33   34 ar
    67   33   65 1
    68   34   66 1
    69   35   36 2
    70   35   37 1
@<TRIPOS>MOLECULE
CHEMBL58848
   40    42     0     0     0
SMALL
USER_CHARGES

@<TRIPOS>ATOM
      1 C1         -0.0173    1.4248    0.0099 C.3       1 <0>         0.0325
      2 O1          0.0021   -0.0041    0.0020 O.3       1 <0>        -0.3544
      3 C2          0.5984   -0.5997   -1.0427 C.2       1 <0>         0.4592
      4 O2          1.0877    0.0699   -1.9214 O.2       1 <0>        -0.5041
      5 C3          0.6575   -2.1036   -1.1196 C.3       1 <0>        -0.1101
      6 C4          1.3848   -2.5205   -2.3995 C.3       1 <0>        -0.0757
      7 C5          1.4440   -4.0244   -2.4765 C.ar      1 <0>        -0.0534
      8 C6          2.5135   -4.6975   -1.9161 C.ar      1 <0>        -0.1059
      9 C7          2.5817   -6.0799   -1.9790 C.ar      1 <0>        -0.0519
     10 C8          1.5675   -6.7925   -2.6098 C.ar      1 <0>        -0.1465
     11 C9          0.4773   -6.1092   -3.1813 C.ar      1 <0>        -0.0284
     12 C10         0.4234   -4.7205   -3.1032 C.ar      1 <0>        -0.0891
     13 C11        -0.5982   -6.8645   -3.8514 C.2       1 <0>         0.0663
     14 C12        -0.5644   -8.2351   -3.9340 C.2       1 <0>        -0.2153
     15 C13         0.4951   -8.9769   -3.3844 C.2       1 <0>         0.3538
     16 O3          0.5014  -10.1904   -3.4710 O.2       1 <0>        -0.3930
     17 C14         1.6145   -8.2669   -2.6921 C.2       1 <0>         0.3579
     18 O4          2.5396   -8.8868   -2.2103 O.2       1 <0>        -0.3846
     19 C15        -1.7339   -6.1326   -4.4446 C.ar      1 <0>        -0.0788
     20 C16        -1.5274   -5.2749   -5.5298 C.ar      1 <0>        -0.0961
     21 C17        -2.5934   -4.5945   -6.0787 C.ar      1 <0>        -0.1177
     22 C18        -3.8658   -4.7582   -5.5579 C.ar      1 <0>        -0.1055
     23 C19        -4.0781   -5.6055   -4.4837 C.ar      1 <0>        -0.1172
     24 C20        -3.0231   -6.2975   -3.9281 C.ar      1 <0>        -0.0927
     25 H1          1.0053    1.8021    0.0021 H         1 <0>         0.0618
     26 H2         -0.5445    1.7859   -0.8732 H         1 <0>         0.0617
     27 H3         -0.5275    1.7763    0.9067 H         1 <0>         0.1037
     28 H4          1.1948   -2.4908   -0.2539 H         1 <0>         0.1113
     29 H5         -0.3550   -2.5070   -1.1292 H         1 <0>         0.1104
     30 H6          0.8476   -2.1333   -3.2653 H         1 <0>         0.0898
     31 H7          2.3973   -2.1171   -2.3900 H         1 <0>         0.0912
     32 H8          3.3004   -4.1428   -1.4269 H         1 <0>         0.1394
     33 H9          3.4191   -6.6020   -1.5402 H         1 <0>         0.1444
     34 H10        -0.4106   -4.1864   -3.5340 H         1 <0>         0.1408
     35 H11        -1.3699   -8.7542   -4.4320 H         1 <0>         0.1540
     36 H12        -0.5353   -5.1457   -5.9366 H         1 <0>         0.1282
     37 H13        -2.4356   -3.9319   -6.9167 H         1 <0>         0.1290
     38 H14        -4.6969   -4.2220   -5.9917 H         1 <0>         0.1266
     39 H15        -5.0734   -5.7278   -4.0827 H         1 <0>         0.1291
     40 H16        -3.1910   -6.9618   -3.0933 H         1 <0>         0.1289
@<TRIPOS>BOND
     1    1    2 1
     2    1   25 1
     3    1   26 1
     4    1   27 1
     5    2    3 1
     6    3    4 2
     7    3    5 1
     8    5    6 1
     9    5   28 1
    10    5   29 1
    11    6    7 1
    12    6   30 1
    13    6   31 1
    14    7   12 ar
    15    7    8 ar
    16    8    9 ar
    17    8   32 1
    18    9   10 ar
    19    9   33 1
    20   10   17 1
    21   10   11 ar
    22   11   12 ar
    23   11   13 1
    24   12   34 1
    25   13   14 2
    26   13   19 1
    27   14   15 1
    28   14   35 1
    29   15   16 2
    30   15   17 1
    31   17   18 2
    32   19   24 ar
    33   19   20 ar
    34   20   21 ar
    35   20   36 1
    36   21   22 ar
    37   21   37 1
    38   22   23 ar
    39   22   38 1
    40   23   24 ar
    41   23   39 1
    42   24   40 1
@<TRIPOS>MOLECULE
CHEMBL590155
   60    61     0     0     0
SMALL
USER_CHARGES

@<TRIPOS>ATOM
      1 C1         -0.0187    1.5258    0.0104 C.3       1 <0>        -0.1450
      2 C2          0.0021   -0.0041    0.0020 C.3       1 <0>        -0.0506
      3 C3         -1.4117   -0.5257    0.0127 C.2       1 <0>         0.0709
      4 C4         -2.1216   -0.6760   -1.1347 C.2       1 <0>        -0.2394
      5 S1         -3.6621   -1.3065   -0.4884 S.3       1 <0>         0.0991
      6 C5         -3.2442   -1.3108    1.1419 C.2       1 <0>         0.0591
      7 N1         -2.0137   -0.8621    1.1360 N.2       1 <0>        -0.5016
      8 C6         -4.0808   -1.7337    2.3218 C.3       1 <0>         0.2401
      9 H1         -3.6229   -1.3691    3.2413 H         1 <0>         0.1248
     10 C7         -4.1662   -3.2607    2.3653 C.3       1 <0>        -0.0691
     11 C8         -4.8982   -3.6876    3.6115 C.ar      1 <0>        -0.1297
     12 C9         -4.1950   -3.9186    4.7796 C.ar      1 <0>        -0.0912
     13 C10        -4.8627   -4.3100    5.9235 C.ar      1 <0>        -0.1542
     14 C11        -6.2422   -4.4714    5.8997 C.ar      1 <0>         0.2005
     15 C12        -6.9455   -4.2384    4.7246 C.ar      1 <0>        -0.1456
     16 C13        -6.2722   -3.8419    3.5859 C.ar      1 <0>        -0.0628
     17 N2         -6.9206   -4.8675    7.0546 N.pl3     1 <0>        -1.0882
     18 S2         -8.3196   -4.1000    7.4975 S.o2      1 <0>         2.7714
     19 O1         -8.7134   -4.6497    8.7854 O.2       1 <0>        -1.0827
     20 O2         -8.0136   -2.6804    7.5832 O.2       1 <0>        -1.0707
     21 O3         -9.3022   -4.3825    6.4627 O.3       1 <0>        -1.0787
     22 N3         -5.4279   -1.1728    2.1914 N.am      1 <0>        -0.7078
     23 C14        -5.6818    0.0781    2.6242 C.2       1 <0>         0.5403
     24 O4         -4.7951    0.7394    3.1215 O.2       1 <0>        -0.5132
     25 C15        -7.0675    0.6551    2.4900 C.3       1 <0>        -0.1031
     26 H2         -7.3513    0.6778    1.4378 H         1 <0>         0.1321
     27 C16        -7.0845    2.0774    3.0535 C.3       1 <0>        -0.0919
     28 C17        -8.4561    2.7081    2.8051 C.3       1 <0>        -0.1129
     29 C18        -8.5151    4.0816    3.4767 C.3       1 <0>        -0.1443
     30 C19        -8.6796    2.8664    1.2998 C.3       1 <0>        -0.1452
     31 C20        -8.0440   -0.2002    3.2554 C.2       1 <0>         0.4513
     32 O5         -7.6548   -1.1779    3.8490 O.2       1 <0>        -0.4572
     33 O6         -9.3464    0.1243    3.2778 O.3       1 <0>        -0.3471
     34 C21       -10.2153   -0.7310    4.0231 C.3       1 <0>         0.0271
     35 H3          1.0039    1.9031    0.0027 H         1 <0>         0.0607
     36 H4         -0.5459    1.8868   -0.8726 H         1 <0>         0.0535
     37 H5         -0.5289    1.8773    0.9072 H         1 <0>         0.0585
     38 H6          0.5123   -0.3556   -0.8948 H         1 <0>         0.0775
     39 H7          0.5293   -0.3651    0.8851 H         1 <0>         0.0803
     40 H8         -1.8343   -0.4709   -2.1554 H         1 <0>         0.1927
     41 H9         -4.7034   -3.6197    1.4875 H         1 <0>         0.0783
     42 H10        -3.1604   -3.6808    2.3728 H         1 <0>         0.0910
     43 H11        -3.1225   -3.7933    4.7973 H         1 <0>         0.1170
     44 H12        -4.3129   -4.4906    6.8353 H         1 <0>         0.1194
     45 H13        -8.0180   -4.3634    4.7026 H         1 <0>         0.1461
     46 H14        -6.8188   -3.6563    2.6731 H         1 <0>         0.1112
     47 H15        -6.5723   -5.5922    7.5972 H         1 <0>         0.4037
     48 H16        -6.1371   -1.7017    1.7936 H         1 <0>         0.4042
     49 H17        -6.8877    2.0460    4.1252 H         1 <0>         0.0778
     50 H18        -6.3161    2.6729    2.5603 H         1 <0>         0.0851
     51 H19        -9.2321    2.0661    3.2221 H         1 <0>         0.0991
     52 H20        -7.7392    4.7235    3.0598 H         1 <0>         0.0520
     53 H21        -9.4923    4.5309    3.2998 H         1 <0>         0.0550
     54 H22        -8.3559    3.9688    4.5491 H         1 <0>         0.0554
     55 H23        -9.6568    3.3157    1.1229 H         1 <0>         0.0555
     56 H24        -7.9036    3.5084    0.8829 H         1 <0>         0.0514
     57 H25        -8.6376    1.8880    0.8214 H         1 <0>         0.0533
     58 H26       -11.2368   -0.3563    3.9587 H         1 <0>         0.0993
     59 H27       -10.1718   -1.7399    3.6127 H         1 <0>         0.0659
     60 H28        -9.9000   -0.7492    5.0664 H         1 <0>         0.0718
@<TRIPOS>BOND
     1    1    2 1
     2    1   35 1
     3    1   36 1
     4    1   37 1
     5    2    3 1
     6    2   38 1
     7    2   39 1
     8    3    7 1
     9    3    4 2
    10    4    5 1
    11    4   40 1
    12    5    6 1
    13    6    7 2
    14    6    8 1
    15    8    9 1
    16    8   10 1
    17    8   22 1
    18   10   11 1
    19   10   41 1
    20   10   42 1
    21   11   16 ar
    22   11   12 ar
    23   12   13 ar
    24   12   43 1
    25   13   14 ar
    26   13   44 1
    27   14   15 ar
    28   14   17 1
    29   15   16 ar
    30   15   45 1
    31   16   46 1
    32   17   18 1
    33   17   47 1
    34   18   19 2
    35   18   20 2
    36   18   21 1
    37   22   23 am
    38   22   48 1
    39   23   24 2
    40   23   25 1
    41   25   26 1
    42   25   27 1
    43   25   31 1
    44   27   28 1
    45   27   49 1
    46   27   50 1
    47   28   29 1
    48   28   30 1
    49   28   51 1
    50   29   52 1
    51   29   53 1
    52   29   54 1
    53   30   55 1
    54   30   56 1
    55   30   57 1
    56   31   32 2
    57   31   33 1
    58   33   34 1
    59   34   58 1
    60   34   59 1
    61   34   60 1
@<TRIPOS>MOLECULE
CHEMBL1078662
   82    83     0     0     0
SMALL
USER_CHARGES

@<TRIPOS>ATOM
      1 C1          1.7885    2.4655   -1.0320 C.3       1 <0>        -0.1538
      2 C2          1.7630    0.9417   -0.8969 C.3       1 <0>        -0.1261
      3 C3          2.2798    0.3064   -2.1892 C.3       1 <0>        -0.1212
      4 C4          2.2542   -1.2174   -2.0541 C.3       1 <0>        -0.1211
      5 C5          2.7711   -1.8528   -3.3464 C.3       1 <0>        -0.1205
      6 C6          2.7455   -3.3766   -3.2113 C.3       1 <0>        -0.1205
      7 C7          3.2623   -4.0119   -4.5036 C.3       1 <0>        -0.1202
      8 C8          3.2368   -5.5357   -4.3685 C.3       1 <0>        -0.1205
      9 C9          3.7536   -6.1711   -5.6608 C.3       1 <0>        -0.1199
     10 C10         3.7280   -7.6949   -5.5257 C.3       1 <0>        -0.1203
     11 C11         4.2449   -8.3302   -6.8180 C.3       1 <0>        -0.1189
     12 C12         4.2193   -9.8540   -6.6829 C.3       1 <0>        -0.1190
     13 C13         4.7361  -10.4894   -7.9752 C.3       1 <0>        -0.1150
     14 C14         4.7106  -12.0132   -7.8401 C.3       1 <0>        -0.1158
     15 C15         5.2274  -12.6485   -9.1325 C.3       1 <0>        -0.0754
     16 C16         5.2022  -14.1494   -8.9994 C.ar      1 <0>        -0.0250
     17 C17         6.3247  -14.8176   -8.6036 C.ar      1 <0>        -0.1519
     18 C18         6.3113  -16.2039   -8.4772 C.ar      1 <0>         0.1111
     19 C19         5.1557  -16.9210   -8.7526 C.ar      1 <0>        -0.2121
     20 C20         4.0101  -16.2564   -9.1549 C.ar      1 <0>         0.1488
     21 C21         4.0259  -14.8563   -9.2762 C.ar      1 <0>        -0.1524
     22 C22         2.8155  -14.1385   -9.6969 C.2       1 <0>         0.5405
     23 O1          2.6207  -13.9102  -10.8833 O.co2     1 <0>        -0.6837
     24 O2          2.0017  -13.7688   -8.8610 O.co2     1 <0>        -0.6864
     25 O3          2.8777  -16.9517   -9.4255 O.3       1 <0>        -0.4898
     26 O4          7.4335  -16.8569   -8.0834 O.3       1 <0>        -0.2980
     27 C23         7.3517  -18.2793   -7.9739 C.3       1 <0>         0.2258
     28 H1          7.0047  -18.6973   -8.9189 H         1 <0>         0.0744
     29 C24         8.7346  -18.8461   -7.6421 C.3       1 <0>         0.0624
     30 H2          9.0998  -18.3979   -6.7181 H         1 <0>         0.0852
     31 C25         8.6270  -20.3641   -7.4672 C.3       1 <0>         0.0857
     32 H3          8.3093  -20.8178   -8.4059 H         1 <0>         0.0786
     33 C26         7.5964  -20.6694   -6.3758 C.3       1 <0>         0.0915
     34 H4          7.9387  -20.2581   -5.4262 H         1 <0>         0.0799
     35 C27         6.2575  -20.0322   -6.7565 C.3       1 <0>         0.1058
     36 H5          5.8961  -20.4732   -7.6855 H         1 <0>         0.0820
     37 O5          6.4343  -18.6253   -6.9343 O.3       1 <0>        -0.3667
     38 C28         5.2386  -20.2819   -5.6429 C.3       1 <0>         0.0920
     39 O6          3.9598  -19.7895   -6.0481 O.3       1 <0>        -0.5605
     40 O7          7.4357  -22.0841   -6.2532 O.3       1 <0>        -0.5499
     41 O8          9.8991  -20.8928   -7.0872 O.3       1 <0>        -0.5565
     42 O9          9.6402  -18.5500   -8.7071 O.3       1 <0>        -0.5565
     43 H6          2.8105    2.7969   -1.2163 H         1 <0>         0.0529
     44 H7          1.1530    2.7672   -1.8646 H         1 <0>         0.0532
     45 H8          1.4204    2.9182   -0.1113 H         1 <0>         0.0525
     46 H9          2.3985    0.6401   -0.0643 H         1 <0>         0.0600
     47 H10         0.7411    0.6104   -0.7125 H         1 <0>         0.0603
     48 H11         1.6443    0.6080   -3.0218 H         1 <0>         0.0605
     49 H12         3.3017    0.6377   -2.3735 H         1 <0>         0.0602
     50 H13         2.8898   -1.5191   -1.2215 H         1 <0>         0.0601
     51 H14         1.2323   -1.5487   -1.8697 H         1 <0>         0.0606
     52 H15         2.1355   -1.5511   -4.1790 H         1 <0>         0.0604
     53 H16         3.7930   -1.5214   -3.5308 H         1 <0>         0.0599
     54 H17         3.3810   -3.6782   -2.3787 H         1 <0>         0.0598
     55 H18         1.7236   -3.7079   -3.0269 H         1 <0>         0.0605
     56 H19         2.6268   -3.7103   -5.3362 H         1 <0>         0.0604
     57 H20         4.2843   -3.6806   -4.6880 H         1 <0>         0.0594
     58 H21         3.8723   -5.8374   -3.5359 H         1 <0>         0.0594
     59 H22         2.2148   -5.8670   -4.1841 H         1 <0>         0.0607
     60 H23         3.1181   -5.8694   -6.4934 H         1 <0>         0.0604
     61 H24         4.7755   -5.8397   -5.8452 H         1 <0>         0.0587
     62 H25         4.3636   -7.9965   -4.6931 H         1 <0>         0.0586
     63 H26         2.7061   -8.0262   -5.3413 H         1 <0>         0.0614
     64 H27         3.6093   -8.0286   -7.6506 H         1 <0>         0.0609
     65 H28         5.2668   -7.9989   -7.0024 H         1 <0>         0.0574
     66 H29         4.8548  -10.1557   -5.8503 H         1 <0>         0.0569
     67 H30         3.1974  -10.1853   -6.4986 H         1 <0>         0.0641
     68 H31         4.1006  -10.1877   -8.8078 H         1 <0>         0.0625
     69 H32         5.7580  -10.1580   -8.1596 H         1 <0>         0.0541
     70 H33         5.3461  -12.3148   -7.0075 H         1 <0>         0.0535
     71 H34         3.6886  -12.3445   -7.6558 H         1 <0>         0.0835
     72 H35         4.5919  -12.3469   -9.9651 H         1 <0>         0.0817
     73 H36         6.2493  -12.3172   -9.3168 H         1 <0>         0.0631
     74 H37         7.2286  -14.2676   -8.3875 H         1 <0>         0.1238
     75 H38         5.1503  -17.9964   -8.6535 H         1 <0>         0.1285
     76 H39         2.2991  -17.0741   -8.6605 H         1 <0>         0.3877
     77 H40         5.1703  -21.3518   -5.4461 H         1 <0>         0.0747
     78 H41         5.5564  -19.7655   -4.7371 H         1 <0>         0.0554
     79 H42         3.2633  -19.9145   -5.3890 H         1 <0>         0.3831
     80 H43         8.2477  -22.5532   -6.0174 H         1 <0>         0.3919
     81 H44        10.6013  -20.7296   -7.7317 H         1 <0>         0.3941
     82 H45         9.7529  -17.6045   -8.8761 H         1 <0>         0.3971
@<TRIPOS>BOND
     1    1    2 1
     2    1   43 1
     3    1   44 1
     4    1   45 1
     5    2    3 1
     6    2   46 1
     7    2   47 1
     8    3    4 1
     9    3   48 1
    10    3   49 1
    11    4    5 1
    12    4   50 1
    13    4   51 1
    14    5    6 1
    15    5   52 1
    16    5   53 1
    17    6    7 1
    18    6   54 1
    19    6   55 1
    20    7    8 1
    21    7   56 1
    22    7   57 1
    23    8    9 1
    24    8   58 1
    25    8   59 1
    26    9   10 1
    27    9   60 1
    28    9   61 1
    29   10   11 1
    30   10   62 1
    31   10   63 1
    32   11   12 1
    33   11   64 1
    34   11   65 1
    35   12   13 1
    36   12   66 1
    37   12   67 1
    38   13   14 1
    39   13   68 1
    40   13   69 1
    41   14   15 1
    42   14   70 1
    43   14   71 1
    44   15   16 1
    45   15   72 1
    46   15   73 1
    47   16   21 ar
    48   16   17 ar
    49   17   18 ar
    50   17   74 1
    51   18   19 ar
    52   18   26 1
    53   19   20 ar
    54   19   75 1
    55   20   21 ar
    56   20   25 1
    57   21   22 1
    58   22   23 2
    59   22   24 1
    60   25   76 1
    61   26   27 1
    62   27   28 1
    63   27   37 1
    64   27   29 1
    65   29   30 1
    66   29   31 1
    67   29   42 1
    68   31   32 1
    69   31   33 1
    70   31   41 1
    71   33   34 1
    72   33   35 1
    73   33   40 1
    74   35   36 1
    75   35   37 1
    76   35   38 1
    77   38   39 1
    78   38   77 1
    79   38   78 1
    80   39   79 1
    81   40   80 1
    82   41   81 1
    83   42   82 1
@<TRIPOS>MOLECULE
CHEMBL564699
   53    55     0     0     0
SMALL
USER_CHARGES

@<TRIPOS>ATOM
      1 C1         -0.0094    1.5540    0.0226 C.3       1 <0>        -0.1240
      2 C2          0.0023    0.0240    0.0147 C.3       1 <0>         0.0347
      3 S1          1.0303   -0.6157   -1.3689 S.3       1 <0>        -0.2795
      4 C3          2.6461   -0.9293   -0.5574 C.3       1 <0>        -0.0726
      5 C4          2.2935   -1.5734    0.8063 C.3       1 <0>        -0.0412
      6 S2          0.8824   -0.6302    1.4853 S.3       1 <0>        -0.2626
      7 C5          3.4905   -1.4797    1.7546 C.3       1 <0>        -0.0985
      8 C6          3.1737   -2.2275    3.0512 C.3       1 <0>        -0.1202
      9 C7          4.3708   -2.1337    3.9995 C.3       1 <0>        -0.1028
     10 C8          4.0540   -2.8815    5.2962 C.3       1 <0>        -0.1390
     11 C9          5.2331   -2.7891    6.2302 C.2       1 <0>         0.5104
     12 O1          6.2287   -2.1847    5.8920 O.2       1 <0>        -0.5216
     13 N1          5.1811   -3.3782    7.4413 N.am      1 <0>        -0.6725
     14 C10         6.3092   -3.3762    8.2692 C.ar      1 <0>         0.1344
     15 C11         7.1629   -2.2806    8.2822 C.ar      1 <0>        -0.1266
     16 C12         8.2741   -2.2867    9.0991 C.ar      1 <0>        -0.0977
     17 C13         8.5438   -3.3798    9.9092 C.ar      1 <0>        -0.1254
     18 C14         7.6951   -4.4677    9.9012 C.ar      1 <0>        -0.0420
     19 C15         6.5766   -4.4658    9.0847 C.ar      1 <0>        -0.1428
     20 C16         7.9496   -5.6673   10.7781 C.3       1 <0>        -0.0926
     21 C17         9.3988   -5.6528   11.2673 C.3       1 <0>         0.0225
     22 H1         10.0685   -5.8697   10.4351 H         1 <0>         0.0543
     23 O2          9.6883   -4.3519   11.7913 O.3       1 <0>        -0.3442
     24 C18         9.7719   -3.3466   10.7817 C.3       1 <0>         0.0924
     25 C19         9.5795   -6.6894   12.3460 C.2       1 <0>         0.5063
     26 O3          9.4532   -7.8729   12.0816 O.co2     1 <0>        -0.6916
     27 O4          9.8519   -6.3446   13.4833 O.co2     1 <0>        -0.6725
     28 C20        -1.4225   -0.5289   -0.0583 C.3       1 <0>        -0.1197
     29 H2          1.0154    1.9252    0.0120 H         1 <0>         0.0694
     30 H3         -0.5368    1.9179   -0.8591 H         1 <0>         0.0757
     31 H4         -0.5151    1.9088    0.9207 H         1 <0>         0.0747
     32 H5          3.2439   -1.6158   -1.1570 H         1 <0>         0.1252
     33 H6          3.1820    0.0077   -0.4062 H         1 <0>         0.1015
     34 H7          2.0108   -2.6165    0.6640 H         1 <0>         0.1081
     35 H8          4.3647   -1.9269    1.2815 H         1 <0>         0.0837
     36 H9          3.6947   -0.4329    1.9795 H         1 <0>         0.0793
     37 H10         2.2995   -1.7802    3.5243 H         1 <0>         0.0704
     38 H11         2.9695   -3.2743    2.8264 H         1 <0>         0.0665
     39 H12         5.2450   -2.5809    3.5264 H         1 <0>         0.0721
     40 H13         4.5750   -1.0869    4.2244 H         1 <0>         0.0723
     41 H14         3.1798   -2.4343    5.7693 H         1 <0>         0.0960
     42 H15         3.8498   -3.9283    5.0713 H         1 <0>         0.0964
     43 H16         4.3618   -3.8036    7.7390 H         1 <0>         0.4095
     44 H17         6.9572   -1.4264    7.6541 H         1 <0>         0.1351
     45 H18         8.9385   -1.4353    9.1078 H         1 <0>         0.1245
     46 H19         5.9127   -5.3176    9.0796 H         1 <0>         0.1248
     47 H20         7.2773   -5.6385   11.6356 H         1 <0>         0.0830
     48 H21         7.7688   -6.5782   10.2074 H         1 <0>         0.0858
     49 H22        10.6553   -3.5238   10.1682 H         1 <0>         0.0558
     50 H23         9.8533   -2.3673   11.2532 H         1 <0>         0.0973
     51 H24        -1.9070   -0.1661   -0.9648 H         1 <0>         0.0731
     52 H25        -1.3890   -1.6182   -0.0753 H         1 <0>         0.0754
     53 H26        -1.9864   -0.1962    0.8132 H         1 <0>         0.0791
@<TRIPOS>BOND
     1    1    2 1
     2    1   29 1
     3    1   30 1
     4    1   31 1
     5    2    6 1
     6    2    3 1
     7    2   28 1
     8    3    4 1
     9    4    5 1
    10    4   32 1
    11    4   33 1
    12    5    6 1
    13    5    7 1
    14    5   34 1
    15    7    8 1
    16    7   35 1
    17    7   36 1
    18    8    9 1
    19    8   37 1
    20    8   38 1
    21    9   10 1
    22    9   39 1
    23    9   40 1
    24   10   11 1
    25   10   41 1
    26   10   42 1
    27   11   12 2
    28   11   13 am
    29   13   14 1
    30   13   43 1
    31   14   19 ar
    32   14   15 ar
    33   15   16 ar
    34   15   44 1
    35   16   17 ar
    36   16   45 1
    37   17   24 1
    38   17   18 ar
    39   18   19 ar
    40   18   20 1
    41   19   46 1
    42   20   21 1
    43   20   47 1
    44   20   48 1
    45   21   22 1
    46   21   23 1
    47   21   25 1
    48   23   24 1
    49   24   49 1
    50   24   50 1
    51   25   26 2
    52   25   27 1
    53   28   51 1
    54   28   52 1
    55   28   53 1
@<TRIPOS>MOLECULE
CHEMBL564699__1
   53    55     0     0     0
SMALL
USER_CHARGES

@<TRIPOS>ATOM
      1 C1          0.0129    1.5460   -0.0043 C.3       1 <0>        -0.1242
      2 C2          0.0244    0.0161   -0.0097 C.3       1 <0>         0.0353
      3 S1          1.0555   -0.6247   -1.3850 S.3       1 <0>        -0.2792
      4 C3          2.3873   -1.5751   -0.5694 C.3       1 <0>        -0.0737
      5 C4          2.5933   -0.9441    0.8300 C.3       1 <0>        -0.0396
      6 S2          0.9005   -0.6373    1.4688 S.3       1 <0>        -0.2631
      7 C5          3.3392   -1.9160    1.7465 C.3       1 <0>        -0.0968
      8 C6          3.6419   -1.2292    3.0798 C.3       1 <0>        -0.1207
      9 C7          4.3877   -2.2011    3.9964 C.3       1 <0>        -0.1032
     10 C8          4.6904   -1.5143    5.3296 C.3       1 <0>        -0.1388
     11 C9          5.4250   -2.4715    6.2324 C.2       1 <0>         0.5102
     12 O1          5.6813   -3.5927    5.8473 O.2       1 <0>        -0.5215
     13 N1          5.7973   -2.0818    7.4677 N.am      1 <0>        -0.6724
     14 C10         6.3921   -2.9989    8.3412 C.ar      1 <0>         0.1343
     15 C11         7.2429   -3.9802    7.8488 C.ar      1 <0>        -0.1266
     16 C12         7.8237   -4.8822    8.7155 C.ar      1 <0>        -0.0977
     17 C13         7.5646   -4.8147   10.0764 C.ar      1 <0>        -0.1253
     18 C14         6.7230   -3.8384   10.5685 C.ar      1 <0>        -0.0420
     19 C15         6.1391   -2.9286    9.7031 C.ar      1 <0>        -0.1427
     20 C16         6.4291   -3.7267   12.0430 C.3       1 <0>        -0.0926
     21 C17         6.8173   -5.0274   12.7481 C.3       1 <0>         0.0224
     22 H1          6.1221   -5.8183   12.4666 H         1 <0>         0.0544
     23 O2          8.1433   -5.3855   12.3428 O.3       1 <0>        -0.3442
     24 C18         8.2158   -5.8238   10.9865 C.3       1 <0>         0.0924
     25 C19         6.7770   -4.8255   14.2410 C.2       1 <0>         0.5063
     26 O3          5.7176   -4.5877   14.7956 O.co2     1 <0>        -0.6914
     27 O4          7.8038   -4.9000   14.8942 O.co2     1 <0>        -0.6725
     28 C20        -1.4001   -0.5368   -0.0874 C.3       1 <0>        -0.1202
     29 H2          1.0378    1.9171   -0.0115 H         1 <0>         0.0695
     30 H3         -0.5109    1.9085   -0.8888 H         1 <0>         0.0728
     31 H4         -0.4963    1.9024    0.8911 H         1 <0>         0.0782
     32 H5          2.0917   -2.6193   -0.4677 H         1 <0>         0.1030
     33 H6          3.3067   -1.5023   -1.1503 H         1 <0>         0.1195
     34 H7          3.1418   -0.0059    0.7452 H         1 <0>         0.1056
     35 H8          2.7207   -2.7959    1.9233 H         1 <0>         0.0804
     36 H9          4.2734   -2.2177    1.2729 H         1 <0>         0.0858
     37 H10         4.2604   -0.3492    2.9031 H         1 <0>         0.0664
     38 H11         2.7077   -0.9275    3.5534 H         1 <0>         0.0709
     39 H12         3.7692   -3.0810    4.1731 H         1 <0>         0.0728
     40 H13         5.3219   -2.5028    3.5227 H         1 <0>         0.0720
     41 H14         5.3089   -0.6343    5.1529 H         1 <0>         0.0956
     42 H15         3.7562   -1.2126    5.8032 H         1 <0>         0.0969
     43 H16         5.6529   -1.1654    7.7512 H         1 <0>         0.4095
     44 H17         7.4489   -4.0368    6.7901 H         1 <0>         0.1350
     45 H18         8.4840   -5.6460    8.3321 H         1 <0>         0.1245
     46 H19         5.4809   -2.1644   10.0894 H         1 <0>         0.1249
     47 H20         7.0016   -2.9008   12.4651 H         1 <0>         0.0830
     48 H21         5.3649   -3.5400   12.1872 H         1 <0>         0.0859
     49 H22         7.7040   -6.7812   10.8887 H         1 <0>         0.0559
     50 H23         9.2609   -5.9452   10.7017 H         1 <0>         0.0972
     51 H24        -1.8810   -0.1754   -0.9964 H         1 <0>         0.0775
     52 H25        -1.3667   -1.6262   -0.1025 H         1 <0>         0.0756
     53 H26        -1.9674   -0.2026    0.7813 H         1 <0>         0.0751
@<TRIPOS>BOND
     1    1    2 1
     2    1   29 1
     3    1   30 1
     4    1   31 1
     5    2    6 1
     6    2    3 1
     7    2   28 1
     8    3    4 1
     9    4    5 1
    10    4   32 1
    11    4   33 1
    12    5    6 1
    13    5    7 1
    14    5   34 1
    15    7    8 1
    16    7   35 1
    17    7   36 1
    18    8    9 1
    19    8   37 1
    20    8   38 1
    21    9   10 1
    22    9   39 1
    23    9   40 1
    24   10   11 1
    25   10   41 1
    26   10   42 1
    27   11   12 2
    28   11   13 am
    29   13   14 1
    30   13   43 1
    31   14   19 ar
    32   14   15 ar
    33   15   16 ar
    34   15   44 1
    35   16   17 ar
    36   16   45 1
    37   17   24 1
    38   17   18 ar
    39   18   19 ar
    40   18   20 1
    41   19   46 1
    42   20   21 1
    43   20   47 1
    44   20   48 1
    45   21   22 1
    46   21   23 1
    47   21   25 1
    48   23   24 1
    49   24   49 1
    50   24   50 1
    51   25   26 2
    52   25   27 1
    53   28   51 1
    54   28   52 1
    55   28   53 1
@<TRIPOS>MOLECULE
CHEMBL282372
   67    72     0     0     0
SMALL
USER_CHARGES

@<TRIPOS>ATOM
      1 C1          7.3205   -2.1010   -2.4249 C.ar      1 <0>        -0.1179
      2 C2          6.2433   -2.9493   -2.2491 C.ar      1 <0>        -0.1179
      3 C3          5.1545   -2.5383   -1.5031 C.ar      1 <0>        -0.1009
      4 C4          5.1431   -1.2792   -0.9326 C.ar      1 <0>        -0.0878
      5 C5          6.2207   -0.4313   -1.1076 C.ar      1 <0>        -0.1085
      6 C6          7.3089   -0.8417   -1.8548 C.ar      1 <0>        -0.1219
      7 C7          3.9556   -0.8308   -0.1202 C.3       1 <0>        -0.0054
      8 C8          4.2065   -1.1192    1.3375 C.2       1 <0>         0.0554
      9 C9          3.7946   -2.2299    1.9920 C.2       1 <0>        -0.1276
     10 C10         4.2636   -2.0769    3.3814 C.ar      1 <0>        -0.1118
     11 C11         4.1665   -2.8561    4.5311 C.ar      1 <0>        -0.0675
     12 C12         4.7318   -2.4102    5.7058 C.ar      1 <0>        -0.1358
     13 C13         5.3942   -1.1918    5.7439 C.ar      1 <0>        -0.0952
     14 C14         5.4963   -0.4116    4.6124 C.ar      1 <0>        -0.1085
     15 C15         4.9331   -0.8441    3.4178 C.ar      1 <0>         0.0526
     16 O1          4.8770   -0.3147    2.1786 O.3       1 <0>        -0.1877
     17 C16         3.0290   -3.3664    1.4280 C.ar      1 <0>        -0.0291
     18 C17         1.7175   -3.1762    0.9918 C.ar      1 <0>        -0.1011
     19 C18         1.0062   -4.2325    0.4673 C.ar      1 <0>        -0.1186
     20 C19         1.5970   -5.4924    0.3720 C.ar      1 <0>        -0.0107
     21 C20         2.9081   -5.6828    0.8079 C.ar      1 <0>        -0.1180
     22 C21         3.6215   -4.6255    1.3277 C.ar      1 <0>        -0.0936
     23 C22         0.8309   -6.6296   -0.1924 C.ar      1 <0>        -0.1127
     24 C23        -0.4782   -6.4398   -0.6335 C.ar      1 <0>        -0.0662
     25 C24        -1.1879   -7.4993   -1.1578 C.ar      1 <0>        -0.2153
     26 C25        -0.6006   -8.7544   -1.2463 C.ar      1 <0>         0.1513
     27 C26         0.7023   -8.9467   -0.8075 C.ar      1 <0>        -0.1107
     28 C27         1.4199   -7.8895   -0.2883 C.ar      1 <0>        -0.0613
     29 C28         1.3356  -10.3108   -0.9045 C.3       1 <0>        -0.0511
     30 C29         1.8039  -10.7763    0.4897 C.3       1 <0>        -0.1151
     31 C30         3.1298  -11.5279    0.2136 C.3       1 <0>        -0.1251
     32 C31         3.7790  -10.6761   -0.9054 C.3       1 <0>        -0.1228
     33 C32         2.5913  -10.2471   -1.7915 C.3       1 <0>        -0.1159
     34 O2         -1.3028   -9.7966   -1.7630 O.3       1 <0>        -0.2751
     35 C33        -2.6383   -9.5285   -2.1948 C.3       1 <0>        -0.0081
     36 C34        -3.2553  -10.7932   -2.7342 C.2       1 <0>         0.5015
     37 O3         -2.6110  -11.8282   -2.7476 O.co2     1 <0>        -0.6699
     38 O4         -4.3987  -10.7813   -3.1573 O.co2     1 <0>        -0.6874
     39 H1          8.1731   -2.4238   -3.0039 H         1 <0>         0.1214
     40 H2          6.2522   -3.9329   -2.6948 H         1 <0>         0.1240
     41 H3          4.3125   -3.2007   -1.3664 H         1 <0>         0.1249
     42 H4          6.2117    0.5525   -0.6622 H         1 <0>         0.1215
     43 H5          8.1507   -0.1791   -1.9918 H         1 <0>         0.1216
     44 H6          3.8046    0.2399   -0.2580 H         1 <0>         0.0955
     45 H7          3.0664   -1.3685   -0.4492 H         1 <0>         0.1095
     46 H8          3.6507   -3.8045    4.5024 H         1 <0>         0.1277
     47 H9          4.6587   -3.0111    6.6003 H         1 <0>         0.1297
     48 H10         5.8340   -0.8511    6.6696 H         1 <0>         0.1343
     49 H11         6.0144    0.5351    4.6539 H         1 <0>         0.1306
     50 H12         1.2599   -2.2007    1.0659 H         1 <0>         0.1211
     51 H13        -0.0091   -4.0854    0.1300 H         1 <0>         0.1267
     52 H14         3.3654   -6.6584    0.7341 H         1 <0>         0.1259
     53 H15         4.6383   -4.7720    1.6612 H         1 <0>         0.1197
     54 H16        -0.9358   -5.4640   -0.5643 H         1 <0>         0.1222
     55 H17        -2.2019   -7.3529   -1.4996 H         1 <0>         0.1302
     56 H18         2.4351   -8.0387    0.0484 H         1 <0>         0.1265
     57 H19         0.6227  -11.0246   -1.3173 H         1 <0>         0.0978
     58 H20         1.9797   -9.9187    1.1391 H         1 <0>         0.0645
     59 H21         1.0698  -11.4484    0.9340 H         1 <0>         0.0665
     60 H22         3.7590  -11.5409    1.1035 H         1 <0>         0.0619
     61 H23         2.9336  -12.5412   -0.1369 H         1 <0>         0.0676
     62 H24         4.2737   -9.8024   -0.4812 H         1 <0>         0.0605
     63 H25         4.4862  -11.2751   -1.4791 H         1 <0>         0.0616
     64 H26         2.4882  -10.9306   -2.6343 H         1 <0>         0.0660
     65 H27         2.7427   -9.2296   -2.1518 H         1 <0>         0.0632
     66 H28        -3.2273   -9.1679   -1.3515 H         1 <0>         0.0594
     67 H29        -2.6217   -8.7698   -2.9773 H         1 <0>         0.0595
@<TRIPOS>BOND
     1    1    6 ar
     2    1    2 ar
     3    1   39 1
     4    2    3 ar
     5    2   40 1
     6    3    4 ar
     7    3   41 1
     8    4    5 ar
     9    4    7 1
    10    5    6 ar
    11    5   42 1
    12    6   43 1
    13    7    8 1
    14    7   44 1
    15    7   45 1
    16    8   16 1
    17    8    9 2
    18    9   10 1
    19    9   17 1
    20   10   15 ar
    21   10   11 ar
    22   11   12 ar
    23   11   46 1
    24   12   13 ar
    25   12   47 1
    26   13   14 ar
    27   13   48 1
    28   14   15 ar
    29   14   49 1
    30   15   16 1
    31   17   22 ar
    32   17   18 ar
    33   18   19 ar
    34   18   50 1
    35   19   20 ar
    36   19   51 1
    37   20   21 ar
    38   20   23 1
    39   21   22 ar
    40   21   52 1
    41   22   53 1
    42   23   28 ar
    43   23   24 ar
    44   24   25 ar
    45   24   54 1
    46   25   26 ar
    47   25   55 1
    48   26   27 ar
    49   26   34 1
    50   27   28 ar
    51   27   29 1
    52   28   56 1
    53   29   33 1
    54   29   30 1
    55   29   57 1
    56   30   31 1
    57   30   58 1
    58   30   59 1
    59   31   32 1
    60   31   60 1
    61   31   61 1
    62   32   33 1
    63   32   62 1
    64   32   63 1
    65   33   64 1
    66   33   65 1
    67   34   35 1
    68   35   36 1
    69   35   66 1
    70   35   67 1
    71   36   37 2
    72   36   38 1
@<TRIPOS>MOLECULE
CHEMBL244360
   57    60     0     0     0
SMALL
USER_CHARGES

@<TRIPOS>ATOM
      1 C1         -0.1230    1.0483   -0.1389 C.ar      1 <0>        -0.0658
      2 C2          1.0961    1.6831   -0.2863 C.ar      1 <0>        -0.1408
      3 C3          2.2638    0.9434   -0.2961 C.ar      1 <0>        -0.0212
      4 C4          2.2125   -0.4311   -0.1581 C.ar      1 <0>        -0.6764
      5 C5          0.9935   -1.0658   -0.0098 C.ar      1 <0>        -0.0209
      6 C6         -0.1744   -0.3263   -0.0014 C.ar      1 <0>        -0.1407
      7 S1          3.7009   -1.3740   -0.1717 S.o2      1 <0>         2.6892
      8 O1          3.3443   -2.6899   -0.5726 O.2       1 <0>        -0.9529
      9 O2          4.6658   -0.5998   -0.8708 O.2       1 <0>        -0.9539
     10 N1          4.2261   -1.4826    1.3950 N.pl3     1 <0>        -0.9963
     11 C7          5.1295   -0.4674    1.9537 C.3       1 <0>         0.1224
     12 C8          6.3571   -1.1699    2.5421 C.3       1 <0>        -0.1409
     13 C9          5.9005   -2.2277    3.5495 C.3       1 <0>         0.1583
     14 C10         5.0398   -3.2743    2.8380 C.3       1 <0>        -0.1495
     15 C11         3.7928   -2.5925    2.2547 C.3       1 <0>         0.1195
     16 N2          7.0731   -2.8789    4.1386 N.pl3     1 <0>        -0.7471
     17 C12         6.9831   -3.4702    5.4011 C.ar      1 <0>         0.2145
     18 C13         5.7791   -3.4457    6.0960 C.ar      1 <0>        -0.1988
     19 C14         5.6850   -4.0288    7.3455 C.ar      1 <0>        -0.0757
     20 C15         6.7854   -4.6399    7.9118 C.ar      1 <0>        -0.1539
     21 C16         7.9990   -4.6700    7.2223 C.ar      1 <0>         0.0599
     22 C17         8.0926   -4.0864    5.9586 C.ar      1 <0>        -0.1595
     23 C18         9.1791   -5.3227    7.8268 C.2       1 <0>        -0.1373
     24 C19        10.4757   -4.8479    7.9298 C.2       1 <0>        -0.1125
     25 C20        11.4203   -5.6341    8.5383 C.2       1 <0>         0.0985
     26 C21        11.0291   -6.8821    9.0278 C.2       1 <0>        -0.1403
     27 S2          9.2926   -6.9195    8.6160 S.3       1 <0>         0.1405
     28 C22        11.8050   -7.8591    9.6832 C.2       1 <0>         0.4868
     29 O3         13.1007   -7.6414    9.9066 O.co2     1 <0>        -0.6352
     30 O4         11.2430   -9.0006   10.0796 O.co2     1 <0>        -0.7107
     31 O5         12.7038   -5.2099    8.6613 O.3       1 <0>        -0.2668
     32 C23        13.0346   -4.4776    9.8430 C.3       1 <0>         0.0205
     33 C24        14.4911   -4.0928    9.8043 C.2       1 <0>         0.5130
     34 O6         15.1819   -4.4157    8.8530 O.co2     1 <0>        -0.6725
     35 O7         14.9787   -3.4586   10.7244 O.co2     1 <0>        -0.7088
     36 Br1        10.9356   -3.1470    7.2435 Br        1 <0>        -0.0362
     37 H1         -1.0350    1.6266   -0.1268 H         1 <0>         0.1303
     38 H2          1.1361    2.7570   -0.3941 H         1 <0>         0.1328
     39 H3          3.2162    1.4393   -0.4119 H         1 <0>         0.1399
     40 H4          0.9534   -2.1397    0.0977 H         1 <0>         0.1401
     41 H5         -1.1268   -0.8222    0.1140 H         1 <0>         0.1330
     42 H6          5.4429    0.2166    1.1651 H         1 <0>         0.0970
     43 H7          4.6150    0.0875    2.7383 H         1 <0>         0.0745
     44 H8          6.9205   -1.6492    1.7415 H         1 <0>         0.0759
     45 H9          6.9892   -0.4378    3.0447 H         1 <0>         0.0866
     46 H10         5.3161   -1.7513    4.3366 H         1 <0>         0.0815
     47 H11         5.6157   -3.7337    2.0346 H         1 <0>         0.0737
     48 H12         4.7344   -4.0399    3.5511 H         1 <0>         0.0848
     49 H13         3.1716   -2.2074    3.0633 H         1 <0>         0.0733
     50 H14         3.2241   -3.3112    1.6646 H         1 <0>         0.0954
     51 H15         7.9120   -2.8995    3.6521 H         1 <0>         0.4002
     52 H16         4.9145   -2.9690    5.6581 H         1 <0>         0.1167
     53 H17         4.7472   -4.0060    7.8808 H         1 <0>         0.1199
     54 H18         6.7077   -5.0944    8.8884 H         1 <0>         0.1224
     55 H19         9.0276   -4.1104    5.4186 H         1 <0>         0.1270
     56 H20        12.4222   -3.5774    9.8960 H         1 <0>         0.0352
     57 H21        12.8457   -5.0976   10.7194 H         1 <0>         0.0513
@<TRIPOS>BOND
     1    1    6 ar
     2    1    2 ar
     3    1   37 1
     4    2    3 ar
     5    2   38 1
     6    3    4 ar
     7    3   39 1
     8    4    5 ar
     9    4    7 1
    10    5    6 ar
    11    5   40 1
    12    6   41 1
    13    7    8 2
    14    7    9 2
    15    7   10 1
    16   10   15 1
    17   10   11 1
    18   11   12 1
    19   11   42 1
    20   11   43 1
    21   12   13 1
    22   12   44 1
    23   12   45 1
    24   13   14 1
    25   13   16 1
    26   13   46 1
    27   14   15 1
    28   14   47 1
    29   14   48 1
    30   15   49 1
    31   15   50 1
    32   16   17 1
    33   16   51 1
    34   17   22 ar
    35   17   18 ar
    36   18   19 ar
    37   18   52 1
    38   19   20 ar
    39   19   53 1
    40   20   21 ar
    41   20   54 1
    42   21   22 ar
    43   21   23 1
    44   22   55 1
    45   23   27 1
    46   23   24 2
    47   24   25 1
    48   24   36 1
    49   25   26 2
    50   25   31 1
    51   26   27 1
    52   26   28 1
    53   28   29 2
    54   28   30 1
    55   31   32 1
    56   32   33 1
    57   32   56 1
    58   32   57 1
    59   33   34 2
    60   33   35 1
@<TRIPOS>MOLECULE
CHEMBL441959
   65    70     0     0     0
SMALL
USER_CHARGES

@<TRIPOS>ATOM
      1 C1          7.3205   -2.1010   -2.4249 C.ar      1 <0>        -0.1164
      2 C2          6.2433   -2.9493   -2.2491 C.ar      1 <0>        -0.1174
      3 C3          5.1545   -2.5383   -1.5031 C.ar      1 <0>        -0.1019
      4 C4          5.1431   -1.2792   -0.9326 C.ar      1 <0>        -0.0899
      5 C5          6.2207   -0.4313   -1.1076 C.ar      1 <0>        -0.1082
      6 C6          7.3089   -0.8417   -1.8548 C.ar      1 <0>        -0.1209
      7 C7          3.9556   -0.8308   -0.1202 C.3       1 <0>        -0.0063
      8 C8          4.2065   -1.1192    1.3375 C.2       1 <0>         0.0623
      9 C9          3.7946   -2.2299    1.9920 C.2       1 <0>        -0.1372
     10 C10         4.2636   -2.0769    3.3814 C.ar      1 <0>        -0.1111
     11 C11         4.1665   -2.8561    4.5311 C.ar      1 <0>        -0.0690
     12 C12         4.7318   -2.4102    5.7058 C.ar      1 <0>        -0.1341
     13 C13         5.3942   -1.1918    5.7439 C.ar      1 <0>        -0.0944
     14 C14         5.4963   -0.4116    4.6124 C.ar      1 <0>        -0.1072
     15 C15         4.9331   -0.8441    3.4178 C.ar      1 <0>         0.0530
     16 O1          4.8770   -0.3147    2.1786 O.3       1 <0>        -0.1865
     17 C16         3.0290   -3.3664    1.4280 C.ar      1 <0>        -0.0093
     18 C17         1.7175   -3.1762    0.9918 C.ar      1 <0>        -0.1059
     19 C18         1.0062   -4.2325    0.4673 C.ar      1 <0>        -0.1030
     20 C19         1.5970   -5.4924    0.3720 C.ar      1 <0>        -0.0427
     21 C20         2.9081   -5.6828    0.8079 C.ar      1 <0>        -0.1027
     22 C21         3.6215   -4.6255    1.3277 C.ar      1 <0>        -0.0977
     23 C22         0.8309   -6.6296   -0.1924 C.ar      1 <0>        -0.0320
     24 C23        -0.4780   -6.4398   -0.6335 C.ar      1 <0>        -0.0960
     25 C24        -1.1878   -7.4995   -1.1578 C.ar      1 <0>        -0.0894
     26 C25        -0.6006   -8.7544   -1.2463 C.ar      1 <0>         0.0716
     27 C26         0.7027   -8.9467   -0.8079 C.ar      1 <0>        -0.1111
     28 C27         1.4199   -7.8897   -0.2883 C.ar      1 <0>        -0.0936
     29 O2         -1.3029   -9.7967   -1.7626 O.3       1 <0>        -0.6608
     30 S1         -1.1503   -9.9609   -3.2680 S.o2      1 <0>         2.6772
     31 O3         -2.0957  -10.9437   -3.6672 O.2       1 <0>        -0.9269
     32 O4         -1.1335   -8.6514   -3.8197 O.2       1 <0>        -0.9591
     33 C28         0.4453  -10.6499   -3.5578 C.ar      1 <0>        -0.7277
     34 C29         1.5353   -9.8130   -3.7392 C.ar      1 <0>        -0.0114
     35 C30         2.7906  -10.3397   -3.9675 C.ar      1 <0>        -0.1863
     36 C31         2.9698  -11.7144   -4.0170 C.ar      1 <0>         0.2027
     37 C32         1.8695  -12.5654   -3.8334 C.ar      1 <0>        -0.1834
     38 C33         0.6043  -12.0172   -3.5974 C.ar      1 <0>         0.0359
     39 C34         2.0462  -14.0255   -3.8836 C.2       1 <0>         0.5205
     40 O5          1.0841  -14.7639   -3.7231 O.co2     1 <0>        -0.6825
     41 O6          3.1552  -14.5008   -4.0858 O.co2     1 <0>        -0.6678
     42 O7          4.2023  -12.2331   -4.2420 O.3       1 <0>        -0.4716
     43 H1          8.1731   -2.4238   -3.0039 H         1 <0>         0.1224
     44 H2          6.2522   -3.9329   -2.6948 H         1 <0>         0.1248
     45 H3          4.3125   -3.2007   -1.3664 H         1 <0>         0.1239
     46 H4          6.2117    0.5525   -0.6622 H         1 <0>         0.1217
     47 H5          8.1507   -0.1791   -1.9918 H         1 <0>         0.1222
     48 H6          3.8046    0.2399   -0.2580 H         1 <0>         0.0967
     49 H7          3.0664   -1.3685   -0.4492 H         1 <0>         0.1092
     50 H8          3.6507   -3.8045    4.5024 H         1 <0>         0.1275
     51 H9          4.6587   -3.0111    6.6003 H         1 <0>         0.1304
     52 H10         5.8340   -0.8511    6.6696 H         1 <0>         0.1351
     53 H11         6.0144    0.5351    4.6539 H         1 <0>         0.1315
     54 H12         1.2599   -2.2007    1.0659 H         1 <0>         0.1257
     55 H13        -0.0091   -4.0854    0.1300 H         1 <0>         0.1309
     56 H14         3.3654   -6.6584    0.7341 H         1 <0>         0.1308
     57 H15         4.6383   -4.7720    1.6612 H         1 <0>         0.1247
     58 H16        -0.9356   -5.4640   -0.5642 H         1 <0>         0.1406
     59 H17        -2.2018   -7.3531   -1.4996 H         1 <0>         0.1426
     60 H18         1.1567   -9.9241   -0.8781 H         1 <0>         0.1459
     61 H19         2.4353   -8.0388    0.0480 H         1 <0>         0.1410
     62 H20         1.4014   -8.7420   -3.7020 H         1 <0>         0.1352
     63 H21         3.6345   -9.6805   -4.1081 H         1 <0>         0.1326
     64 H22        -0.2472  -12.6652   -3.4511 H         1 <0>         0.1493
     65 H23         4.7139  -12.3948   -3.4375 H         1 <0>         0.3937
@<TRIPOS>BOND
     1    1    6 ar
     2    1    2 ar
     3    1   43 1
     4    2    3 ar
     5    2   44 1
     6    3    4 ar
     7    3   45 1
     8    4    5 ar
     9    4    7 1
    10    5    6 ar
    11    5   46 1
    12    6   47 1
    13    7    8 1
    14    7   48 1
    15    7   49 1
    16    8   16 1
    17    8    9 2
    18    9   10 1
    19    9   17 1
    20   10   15 ar
    21   10   11 ar
    22   11   12 ar
    23   11   50 1
    24   12   13 ar
    25   12   51 1
    26   13   14 ar
    27   13   52 1
    28   14   15 ar
    29   14   53 1
    30   15   16 1
    31   17   22 ar
    32   17   18 ar
    33   18   19 ar
    34   18   54 1
    35   19   20 ar
    36   19   55 1
    37   20   21 ar
    38   20   23 1
    39   21   22 ar
    40   21   56 1
    41   22   57 1
    42   23   28 ar
    43   23   24 ar
    44   24   25 ar
    45   24   58 1
    46   25   26 ar
    47   25   59 1
    48   26   27 ar
    49   26   29 1
    50   27   28 ar
    51   27   60 1
    52   28   61 1
    53   29   30 1
    54   30   31 2
    55   30   32 2
    56   30   33 1
    57   33   38 ar
    58   33   34 ar
    59   34   35 ar
    60   34   62 1
    61   35   36 ar
    62   35   63 1
    63   36   37 ar
    64   36   42 1
    65   37   38 ar
    66   37   39 1
    67   38   64 1
    68   39   40 2
    69   39   41 1
    70   42   65 1
@<TRIPOS>MOLECULE
CHEMBL244563
   60    63     0     0     0
SMALL
USER_CHARGES

@<TRIPOS>ATOM
      1 C1          0.3085    2.1289    0.1029 C.ar      1 <0>        -0.1118
      2 C2          1.5483    2.7296   -0.0106 C.ar      1 <0>        -0.1176
      3 C3          2.6933    1.9551   -0.0209 C.ar      1 <0>        -0.1052
      4 C4          2.5984    0.5799    0.0827 C.ar      1 <0>        -0.0932
      5 C5          1.3586   -0.0208    0.1971 C.ar      1 <0>        -0.1053
      6 C6          0.2136    0.7536    0.2060 C.ar      1 <0>        -0.1177
      7 C7          3.8465   -0.2646    0.0704 C.3       1 <0>        -0.5879
      8 S1          4.4462   -0.4819    1.7686 S.o2      1 <0>         2.6044
      9 O1          4.9114    0.7572    2.2858 O.2       1 <0>        -0.9455
     10 O2          3.5350   -1.2805    2.5110 O.2       1 <0>        -0.9466
     11 N1          5.8057   -1.4163    1.6235 N.pl3     1 <0>        -0.9997
     12 C8          5.7148   -2.8821    1.6671 C.3       1 <0>         0.1208
     13 C9          6.6786   -3.4043    2.7372 C.3       1 <0>        -0.1407
     14 C10         8.0848   -2.8698    2.4561 C.3       1 <0>         0.1584
     15 C11         8.0737   -1.3408    2.5208 C.3       1 <0>        -0.1492
     16 C12         7.1250   -0.7954    1.4426 C.3       1 <0>         0.1177
     17 N2          9.0156   -3.3940    3.4587 N.pl3     1 <0>        -0.7475
     18 C13        10.3758   -3.5034    3.1594 C.ar      1 <0>         0.2143
     19 C14        10.8470   -3.1095    1.9119 C.ar      1 <0>        -0.2008
     20 C15        12.1918   -3.2154    1.6111 C.ar      1 <0>        -0.0750
     21 C16        13.0760   -3.7132    2.5467 C.ar      1 <0>        -0.1563
     22 C17        12.6130   -4.1119    3.8020 C.ar      1 <0>         0.0658
     23 C18        11.2565   -3.9993    4.1080 C.ar      1 <0>        -0.1625
     24 C19        13.5575   -4.6457    4.8054 C.2       1 <0>        -0.1619
     25 C20        13.4386   -5.7783    5.5929 C.2       1 <0>        -0.0548
     26 C21        14.4511   -6.0851    6.4657 C.2       1 <0>         0.0856
     27 C22        15.5595   -5.2372    6.5197 C.2       1 <0>        -0.1353
     28 S2         15.1444   -3.9981    5.3037 S.3       1 <0>         0.1373
     29 C23        16.7126   -5.3373    7.3238 C.2       1 <0>         0.4864
     30 O3         16.8429   -6.3516    8.1785 O.co2     1 <0>        -0.6347
     31 O4         17.6726   -4.4178    7.2296 O.co2     1 <0>        -0.7096
     32 O5         14.3775   -7.1850    7.2576 O.3       1 <0>        -0.2670
     33 C24        14.9136   -8.4005    6.7310 C.3       1 <0>         0.0205
     34 C25        14.7440   -9.5043    7.7430 C.2       1 <0>         0.5122
     35 O6         14.2133   -9.2716    8.8157 O.co2     1 <0>        -0.6729
     36 O7         15.1375  -10.6299    7.4890 O.co2     1 <0>        -0.7085
     37 Cl1        12.0334   -6.7912    5.4781 Cl        1 <0>        -0.0548
     38 H1         -0.5858    2.7343    0.1155 H         1 <0>         0.1269
     39 H2          1.6224    3.8040   -0.0915 H         1 <0>         0.1291
     40 H3          3.6619    2.4243   -0.1102 H         1 <0>         0.1307
     41 H4          1.2845   -1.0952    0.2776 H         1 <0>         0.1306
     42 H5         -0.7550    0.2843    0.2949 H         1 <0>         0.1290
     43 H6          3.6217   -1.2391   -0.3630 H         1 <0>         0.1405
     44 H7          4.6138    0.2298   -0.5254 H         1 <0>         0.1408
     45 H8          4.6960   -3.1777    1.9173 H         1 <0>         0.0973
     46 H9          5.9890   -3.2943    0.6960 H         1 <0>         0.0741
     47 H10         6.3501   -3.0648    3.7195 H         1 <0>         0.0755
     48 H11         6.6922   -4.4939    2.7141 H         1 <0>         0.0859
     49 H12         8.4029   -3.1890    1.4636 H         1 <0>         0.0813
     50 H13         7.7320   -1.0208    3.5051 H         1 <0>         0.0733
     51 H14         9.0802   -0.9618    2.3436 H         1 <0>         0.0843
     52 H15         7.5119   -1.0409    0.4535 H         1 <0>         0.0729
     53 H16         7.0369    0.2862    1.5446 H         1 <0>         0.0957
     54 H17         8.6875   -3.6650    4.3303 H         1 <0>         0.4000
     55 H18        10.1598   -2.7199    1.1755 H         1 <0>         0.1164
     56 H19        12.5519   -2.9078    0.6405 H         1 <0>         0.1198
     57 H20        14.1261   -3.7946    2.3075 H         1 <0>         0.1226
     58 H21        10.8932   -4.3020    5.0789 H         1 <0>         0.1254
     59 H22        14.3854   -8.6636    5.8145 H         1 <0>         0.0342
     60 H23        15.9733   -8.2663    6.5139 H         1 <0>         0.0523
@<TRIPOS>BOND
     1    1    6 ar
     2    1    2 ar
     3    1   38 1
     4    2    3 ar
     5    2   39 1
     6    3    4 ar
     7    3   40 1
     8    4    5 ar
     9    4    7 1
    10    5    6 ar
    11    5   41 1
    12    6   42 1
    13    7    8 1
    14    7   43 1
    15    7   44 1
    16    8    9 2
    17    8   10 2
    18    8   11 1
    19   11   16 1
    20   11   12 1
    21   12   13 1
    22   12   45 1
    23   12   46 1
    24   13   14 1
    25   13   47 1
    26   13   48 1
    27   14   15 1
    28   14   17 1
    29   14   49 1
    30   15   16 1
    31   15   50 1
    32   15   51 1
    33   16   52 1
    34   16   53 1
    35   17   18 1
    36   17   54 1
    37   18   23 ar
    38   18   19 ar
    39   19   20 ar
    40   19   55 1
    41   20   21 ar
    42   20   56 1
    43   21   22 ar
    44   21   57 1
    45   22   23 ar
    46   22   24 1
    47   23   58 1
    48   24   28 1
    49   24   25 2
    50   25   26 1
    51   25   37 1
    52   26   27 2
    53   26   32 1
    54   27   28 1
    55   27   29 1
    56   29   30 2
    57   29   31 1
    58   32   33 1
    59   33   34 1
    60   33   59 1
    61   33   60 1
    62   34   35 2
    63   34   36 1
@<TRIPOS>MOLECULE
CHEMBL9070
   51    52     0     0     0
SMALL
USER_CHARGES

@<TRIPOS>ATOM
      1 C1          0.1411    0.4489   -0.1983 C.3       1 <0>         0.0351
      2 O1          0.2666   -0.9626   -0.3828 O.3       1 <0>        -0.3696
      3 C2          0.9082   -1.3782   -1.4862 C.2       1 <0>         0.4790
      4 O2          1.3486   -0.5704   -2.2694 O.2       1 <0>        -0.4633
      5 C3          1.0791   -2.8524   -1.7482 C.3       1 <0>        -0.1098
      6 C4          1.8685   -3.4861   -0.6008 C.3       1 <0>        -0.0433
      7 C5          3.2230   -2.8330   -0.5021 C.ar      1 <0>        -0.0855
      8 C6          4.2900   -3.3430   -1.2178 C.ar      1 <0>        -0.0862
      9 C7          5.5325   -2.7440   -1.1273 C.ar      1 <0>        -0.0906
     10 C8          5.7079   -1.6346   -0.3214 C.ar      1 <0>        -0.1191
     11 C9          4.6407   -1.1240    0.3936 C.ar      1 <0>        -0.0929
     12 C10         3.3972   -1.7205    0.2997 C.ar      1 <0>        -0.1306
     13 C11         7.0627   -0.9821   -0.2219 C.3       1 <0>        -0.2328
     14 F1          7.7967   -1.2523   -1.3818 F         1 <0>        -0.2179
     15 F2          6.9050    0.4008   -0.0814 F         1 <0>        -0.2199
     16 P1          7.9505   -1.6429    1.2267 P.3       1 <0>         2.1641
     17 O3          7.1977   -1.2253    2.5357 O.2       1 <0>        -1.1447
     18 O4          8.0101   -3.2057    1.1345 O.3       1 <0>        -1.1421
     19 O5          9.4066   -1.0655    1.2549 O.3       1 <0>        -1.1568
     20 C12        -0.2961   -3.5154   -1.8484 C.3       1 <0>        -0.0483
     21 C13        -1.0735   -2.8913   -2.9784 C.ar      1 <0>        -0.0762
     22 C14        -1.8728   -1.7886   -2.7413 C.ar      1 <0>        -0.1264
     23 C15        -2.5859   -1.2161   -3.7779 C.ar      1 <0>        -0.0804
     24 C16        -2.4995   -1.7459   -5.0517 C.ar      1 <0>        -0.1190
     25 C17        -1.6995   -2.8480   -5.2891 C.ar      1 <0>        -0.0825
     26 C18        -0.9830   -3.4179   -4.2533 C.ar      1 <0>        -0.0851
     27 C19        -3.2777   -1.1224   -6.1816 C.3       1 <0>        -0.2320
     28 F3         -3.3419    0.2626   -5.9950 F         1 <0>        -0.2196
     29 F4         -2.6406   -1.4003   -7.3957 F         1 <0>        -0.2178
     30 P2         -4.9655   -1.8107   -6.2094 P.3       1 <0>         2.1643
     31 O6         -4.8993   -3.3433   -6.5273 O.2       1 <0>        -1.1445
     32 O7         -5.6402   -1.5959   -4.8118 O.3       1 <0>        -1.1428
     33 O8         -5.8076   -1.0843   -7.3129 O.3       1 <0>        -1.1568
     34 C20         1.8272   -3.0493   -3.0415 C.2       1 <0>         0.5218
     35 O9          2.5368   -4.0293   -3.1922 O.co2     1 <0>        -0.6936
     36 O10         1.7229   -2.2287   -3.9371 O.co2     1 <0>        -0.6488
     37 H1          1.1328    0.8982   -0.1472 H         1 <0>         0.0494
     38 H2         -0.4092    0.8773   -1.0359 H         1 <0>         0.0502
     39 H3         -0.3961    0.6477    0.7291 H         1 <0>         0.0842
     40 H4          1.3274   -3.3436    0.3346 H         1 <0>         0.0603
     41 H5          1.9921   -4.5523   -0.7903 H         1 <0>         0.0840
     42 H6          4.1530   -4.2097   -1.8475 H         1 <0>         0.1442
     43 H7          6.3663   -3.1429   -1.6859 H         1 <0>         0.1149
     44 H8          4.7778   -0.2575    1.0235 H         1 <0>         0.1168
     45 H9          2.5625   -1.3194    0.8554 H         1 <0>         0.1094
     46 H10        -0.1724   -4.5817   -2.0378 H         1 <0>         0.0775
     47 H11        -0.8371   -3.3730   -0.9129 H         1 <0>         0.0676
     48 H12        -1.9403   -1.3747   -1.7461 H         1 <0>         0.1097
     49 H13        -3.2109   -0.3550   -3.5924 H         1 <0>         0.1162
     50 H14        -1.6322   -3.2622   -6.2842 H         1 <0>         0.1156
     51 H15        -0.3551   -4.2767   -4.4395 H         1 <0>         0.1147
@<TRIPOS>BOND
     1    1    2 1
     2    1   37 1
     3    1   38 1
     4    1   39 1
     5    2    3 1
     6    3    4 2
     7    3    5 1
     8    5    6 1
     9    5   20 1
    10    5   34 1
    11    6    7 1
    12    6   40 1
    13    6   41 1
    14    7   12 ar
    15    7    8 ar
    16    8    9 ar
    17    8   42 1
    18    9   10 ar
    19    9   43 1
    20   10   11 ar
    21   10   13 1
    22   11   12 ar
    23   11   44 1
    24   12   45 1
    25   13   14 1
    26   13   15 1
    27   13   16 1
    28   16   17 2
    29   16   18 1
    30   16   19 1
    31   20   21 1
    32   20   46 1
    33   20   47 1
    34   21   26 ar
    35   21   22 ar
    36   22   23 ar
    37   22   48 1
    38   23   24 ar
    39   23   49 1
    40   24   25 ar
    41   24   27 1
    42   25   26 ar
    43   25   50 1
    44   26   51 1
    45   27   28 1
    46   27   29 1
    47   27   30 1
    48   30   31 2
    49   30   32 1
    50   30   33 1
    51   34   35 2
    52   34   36 1
@<TRIPOS>MOLECULE
CHEMBL230325
   61    64     0     0     0
SMALL
USER_CHARGES

@<TRIPOS>ATOM
      1 C1          1.6879    1.9389    2.5059 C.ar      1 <0>        -0.1435
      2 C2          2.9336    2.5370    2.4530 C.ar      1 <0>        -0.1011
      3 C3          4.0354    1.8068    2.0527 C.ar      1 <0>        -0.1554
      4 C4          3.8913    0.4705    1.7033 C.ar      1 <0>         0.1648
      5 C5          2.6391   -0.1272    1.7574 C.ar      1 <0>        -0.1339
      6 C6          1.5411    0.6086    2.1585 C.ar      1 <0>        -0.1001
      7 N1          5.0057   -0.2721    1.2969 N.am      1 <0>        -0.6859
      8 C7          5.0343   -1.6054    1.4911 C.2       1 <0>         0.7079
      9 O1          4.0338   -2.1871    1.8639 O.2       1 <0>        -0.5680
     10 N2          6.1720   -2.2941    1.2720 N.am      1 <0>        -0.6223
     11 C8          7.4276   -1.5908    0.9763 C.3       1 <0>         0.1113
     12 C9          8.0129   -2.1521   -0.3234 C.3       1 <0>        -0.1278
     13 C10         8.1572   -3.6706   -0.1992 C.3       1 <0>        -0.0982
     14 C11         6.7794   -4.2994    0.0213 C.3       1 <0>        -0.1315
     15 C12         6.1814   -3.7622    1.3304 C.3       1 <0>         0.1274
     16 C13         8.7736   -4.2307   -1.4826 C.3       1 <0>         0.1359
     17 N3          9.0222   -5.6652   -1.3193 N.pl3     1 <0>        -0.7513
     18 C14         9.5851   -6.4001   -2.3656 C.ar      1 <0>         0.2122
     19 C15         9.9148   -5.7690   -3.5598 C.ar      1 <0>        -0.1959
     20 C16        10.4715   -6.4917   -4.5981 C.ar      1 <0>        -0.0761
     21 C17        10.7044   -7.8447   -4.4563 C.ar      1 <0>        -0.1512
     22 C18        10.3769   -8.4880   -3.2613 C.ar      1 <0>         0.0597
     23 C19         9.8203   -7.7575   -2.2111 C.ar      1 <0>        -0.1574
     24 C20        10.6243   -9.9368   -3.1073 C.2       1 <0>        -0.1375
     25 C21         9.7257  -10.9418   -2.7917 C.2       1 <0>        -0.1117
     26 C22        10.1827  -12.2317   -2.7013 C.2       1 <0>         0.0985
     27 C23        11.5387  -12.4725   -2.9325 C.2       1 <0>        -0.1409
     28 S1         12.1556  -10.8357   -3.2885 S.3       1 <0>         0.1381
     29 C24        12.2393  -13.6949   -2.8986 C.2       1 <0>         0.4870
     30 O2         11.5934  -14.8254   -2.6144 O.co2     1 <0>        -0.6354
     31 O3         13.5477  -13.7202   -3.1506 O.co2     1 <0>        -0.7111
     32 O4          9.3381  -13.2488   -2.3941 O.3       1 <0>        -0.2668
     33 C25         8.6922  -13.9077   -3.4853 C.3       1 <0>         0.0205
     34 C26         7.8001  -15.0005   -2.9553 C.2       1 <0>         0.5130
     35 O5          7.7244  -15.1969   -1.7544 O.co2     1 <0>        -0.6726
     36 O6          7.1540  -15.6882   -3.7274 O.co2     1 <0>        -0.7087
     37 Br1         7.9020  -10.5431   -2.4905 Br        1 <0>        -0.0361
     38 H1          0.8286    2.5109    2.8235 H         1 <0>         0.1202
     39 H2          3.0449    3.5764    2.7245 H         1 <0>         0.1235
     40 H3          5.0080    2.2745    2.0113 H         1 <0>         0.1222
     41 H4          2.5237   -1.1661    1.4859 H         1 <0>         0.1565
     42 H5          0.5669    0.1443    2.2008 H         1 <0>         0.1242
     43 H6          5.7576    0.1729    0.8754 H         1 <0>         0.4059
     44 H7          7.2306   -0.5253    0.8581 H         1 <0>         0.0750
     45 H8          8.1339   -1.7456    1.7919 H         1 <0>         0.0760
     46 H9          7.3471   -1.9166   -1.1537 H         1 <0>         0.0717
     47 H10         8.9915   -1.7072   -0.5036 H         1 <0>         0.0815
     48 H11         8.8033   -3.9060    0.6466 H         1 <0>         0.0815
     49 H12         6.1253   -4.0437   -0.8123 H         1 <0>         0.0707
     50 H13         6.8801   -5.3827    0.0863 H         1 <0>         0.0836
     51 H14         6.7881   -4.0904    2.1743 H         1 <0>         0.0712
     52 H15         5.1617   -4.1298    1.4459 H         1 <0>         0.0970
     53 H16         8.0869   -4.0733   -2.3143 H         1 <0>         0.0570
     54 H17         9.7146   -3.7199   -1.6867 H         1 <0>         0.0577
     55 H18         8.7958   -6.1048   -0.4848 H         1 <0>         0.3990
     56 H19         9.7349   -4.7105   -3.6767 H         1 <0>         0.1149
     57 H20        10.7248   -5.9960   -5.5236 H         1 <0>         0.1202
     58 H21        11.1396   -8.4058   -5.2700 H         1 <0>         0.1229
     59 H22         9.5690   -8.2487   -1.2827 H         1 <0>         0.1247
     60 H23         8.0926  -13.1869   -4.0414 H         1 <0>         0.0352
     61 H24         9.4442  -14.3405   -4.1450 H         1 <0>         0.0513
@<TRIPOS>BOND
     1    1    6 ar
     2    1    2 ar
     3    1   38 1
     4    2    3 ar
     5    2   39 1
     6    3    4 ar
     7    3   40 1
     8    4    5 ar
     9    4    7 1
    10    5    6 ar
    11    5   41 1
    12    6   42 1
    13    7    8 am
    14    7   43 1
    15    8    9 2
    16    8   10 am
    17   10   15 1
    18   10   11 1
    19   11   12 1
    20   11   44 1
    21   11   45 1
    22   12   13 1
    23   12   46 1
    24   12   47 1
    25   13   14 1
    26   13   16 1
    27   13   48 1
    28   14   15 1
    29   14   49 1
    30   14   50 1
    31   15   51 1
    32   15   52 1
    33   16   17 1
    34   16   53 1
    35   16   54 1
    36   17   18 1
    37   17   55 1
    38   18   23 ar
    39   18   19 ar
    40   19   20 ar
    41   19   56 1
    42   20   21 ar
    43   20   57 1
    44   21   22 ar
    45   21   58 1
    46   22   23 ar
    47   22   24 1
    48   23   59 1
    49   24   28 1
    50   24   25 2
    51   25   26 1
    52   25   37 1
    53   26   27 2
    54   26   32 1
    55   27   28 1
    56   27   29 1
    57   29   30 2
    58   29   31 1
    59   32   33 1
    60   33   34 1
    61   33   60 1
    62   33   61 1
    63   34   35 2
    64   34   36 1
@<TRIPOS>MOLECULE
CHEMBL284765
   71    76     0     0     0
SMALL
USER_CHARGES

@<TRIPOS>ATOM
      1 C1          0.7834    0.6766   -2.6300 C.3       1 <0>        -0.1518
      2 C2          0.7127   -0.8236   -2.3382 C.3       1 <0>         0.0547
      3 O1          1.3466   -1.5451   -3.3964 O.3       1 <0>        -0.3172
      4 C3          1.3709   -2.8997   -3.2913 C.ar      1 <0>         0.1266
      5 C4          0.7904   -3.5199   -2.1934 C.ar      1 <0>        -0.2137
      6 C5          0.8131   -4.8945   -2.0841 C.ar      1 <0>        -0.0714
      7 C6          1.4198   -5.6612   -3.0775 C.ar      1 <0>        -0.0697
      8 C7          2.0019   -5.0356   -4.1788 C.ar      1 <0>        -0.0346
      9 C8          1.9713   -3.6609   -4.2850 C.ar      1 <0>        -0.1438
     10 C9          1.4465   -7.1399   -2.9628 C.ar      1 <0>        -0.0830
     11 C10         1.8746   -7.7401   -1.7836 C.ar      1 <0>        -0.0544
     12 C11         1.8967   -9.1282   -1.6822 C.ar      1 <0>        -0.1115
     13 C12         1.4901   -9.9126   -2.7620 C.ar      1 <0>        -0.0603
     14 C13         1.0660   -9.3164   -3.9315 C.ar      1 <0>        -0.2155
     15 C14         1.0355   -7.9342   -4.0384 C.ar      1 <0>         0.1602
     16 O2          0.6114   -7.3515   -5.1899 O.3       1 <0>        -0.2688
     17 C15         0.2065   -8.2232   -6.2473 C.3       1 <0>        -0.0105
     18 C16        -0.2286   -7.4039   -7.4349 C.2       1 <0>         0.5011
     19 O3         -0.1949   -6.1864   -7.3809 O.co2     1 <0>        -0.6658
     20 O4         -0.6142   -7.9587   -8.4499 O.co2     1 <0>        -0.6881
     21 C17         2.3528   -9.7731   -0.4272 C.ar      1 <0>        -0.0113
     22 C18         2.7542   -8.9885    0.6539 C.ar      1 <0>        -0.1179
     23 C19         3.1774   -9.5869    1.8198 C.ar      1 <0>        -0.0943
     24 C20         3.2046  -10.9787    1.9195 C.ar      1 <0>        -0.0453
     25 C21         2.8029  -11.7634    0.8376 C.ar      1 <0>        -0.0993
     26 C22         2.3748  -11.1640   -0.3261 C.ar      1 <0>        -0.1178
     27 C23         3.6602  -11.6227    3.1730 C.2       1 <0>        -0.0627
     28 C24         5.0543  -11.5141    3.6014 C.ar      1 <0>        -0.0712
     29 C25         6.1231  -10.8431    2.9651 C.ar      1 <0>        -0.0710
     30 C26         7.3693  -10.8457    3.5098 C.ar      1 <0>        -0.1221
     31 C27         7.6374  -11.5028    4.7029 C.ar      1 <0>        -0.0973
     32 C28         6.6194  -12.1698    5.3547 C.ar      1 <0>        -0.0799
     33 C29         5.3519  -12.1734    4.8111 C.ar      1 <0>        -0.1138
     34 S1          3.8016  -12.8837    5.3006 S.3       1 <0>         0.0301
     35 C30         2.7920  -12.3178    3.9453 C.2       1 <0>        -0.1014
     36 C31         1.3225  -12.5580    3.7130 C.3       1 <0>        -0.0016
     37 C32         0.5199  -11.5303    4.4685 C.ar      1 <0>        -0.0813
     38 C33         0.2045  -11.7404    5.7979 C.ar      1 <0>        -0.1106
     39 C34        -0.5316  -10.7977    6.4909 C.ar      1 <0>        -0.1205
     40 C35        -0.9520   -9.6448    5.8547 C.ar      1 <0>        -0.1199
     41 C36        -0.6359   -9.4342    4.5256 C.ar      1 <0>        -0.1176
     42 C37         0.1040  -10.3749    3.8337 C.ar      1 <0>        -0.1021
     43 H1          1.8267    0.9834   -2.7049 H         1 <0>         0.0646
     44 H2          0.2741    0.8883   -3.5702 H         1 <0>         0.0666
     45 H3          0.2999    1.2269   -1.8229 H         1 <0>         0.0751
     46 H4          1.2220   -1.0353   -1.3981 H         1 <0>         0.0587
     47 H5         -0.3306   -1.1304   -2.2634 H         1 <0>         0.0605
     48 H6          0.3207   -2.9252   -1.4238 H         1 <0>         0.1235
     49 H7          0.3616   -5.3764   -1.2295 H         1 <0>         0.1212
     50 H8          2.4731   -5.6270   -4.9499 H         1 <0>         0.1319
     51 H9          2.4182   -3.1758   -5.1402 H         1 <0>         0.1306
     52 H10         2.1893   -7.1311   -0.9490 H         1 <0>         0.1285
     53 H11         1.5077  -10.9895   -2.6821 H         1 <0>         0.1240
     54 H12         0.7526   -9.9279   -4.7646 H         1 <0>         0.1329
     55 H13         1.0429   -8.8611   -6.5327 H         1 <0>         0.0602
     56 H14        -0.6242   -8.8428   -5.9094 H         1 <0>         0.0597
     57 H15         2.7335   -7.9114    0.5765 H         1 <0>         0.1263
     58 H16         3.4885   -8.9793    2.6567 H         1 <0>         0.1195
     59 H17         2.8242  -12.8404    0.9142 H         1 <0>         0.1215
     60 H18         2.0597  -11.7712   -1.1618 H         1 <0>         0.1269
     61 H19         5.9482  -10.3224    2.0353 H         1 <0>         0.1257
     62 H20         8.1682  -10.3253    3.0026 H         1 <0>         0.1272
     63 H21         8.6345  -11.4926    5.1178 H         1 <0>         0.1332
     64 H22         6.8142  -12.6847    6.2838 H         1 <0>         0.1299
     65 H23         1.1052  -12.4775    2.6479 H         1 <0>         0.1005
     66 H24         1.0575  -13.5554    4.0635 H         1 <0>         0.0911
     67 H25         0.5330  -12.6412    6.2950 H         1 <0>         0.1194
     68 H26        -0.7787  -10.9622    7.5294 H         1 <0>         0.1209
     69 H27        -1.5278   -8.9086    6.3960 H         1 <0>         0.1204
     70 H28        -0.9646   -8.5336    4.0284 H         1 <0>         0.1226
     71 H29         0.3542  -10.2087    2.7963 H         1 <0>         0.1234
@<TRIPOS>BOND
     1    1    2 1
     2    1   43 1
     3    1   44 1
     4    1   45 1
     5    2    3 1
     6    2   46 1
     7    2   47 1
     8    3    4 1
     9    4    9 ar
    10    4    5 ar
    11    5    6 ar
    12    5   48 1
    13    6    7 ar
    14    6   49 1
    15    7    8 ar
    16    7   10 1
    17    8    9 ar
    18    8   50 1
    19    9   51 1
    20   10   15 ar
    21   10   11 ar
    22   11   12 ar
    23   11   52 1
    24   12   13 ar
    25   12   21 1
    26   13   14 ar
    27   13   53 1
    28   14   15 ar
    29   14   54 1
    30   15   16 1
    31   16   17 1
    32   17   18 1
    33   17   55 1
    34   17   56 1
    35   18   19 2
    36   18   20 1
    37   21   26 ar
    38   21   22 ar
    39   22   23 ar
    40   22   57 1
    41   23   24 ar
    42   23   58 1
    43   24   25 ar
    44   24   27 1
    45   25   26 ar
    46   25   59 1
    47   26   60 1
    48   27   35 2
    49   27   28 1
    50   28   33 ar
    51   28   29 ar
    52   29   30 ar
    53   29   61 1
    54   30   31 ar
    55   30   62 1
    56   31   32 ar
    57   31   63 1
    58   32   33 ar
    59   32   64 1
    60   33   34 1
    61   34   35 1
    62   35   36 1
    63   36   37 1
    64   36   65 1
    65   36   66 1
    66   37   42 ar
    67   37   38 ar
    68   38   39 ar
    69   38   67 1
    70   39   40 ar
    71   39   68 1
    72   40   41 ar
    73   40   69 1
    74   41   42 ar
    75   41   70 1
    76   42   71 1
@<TRIPOS>MOLECULE
CHEMBL175198
   77    78     0     0     0
SMALL
USER_CHARGES

@<TRIPOS>ATOM
      1 C1         -0.0187    1.5258    0.0104 C.3       1 <0>        -0.1527
      2 C2          0.0021   -0.0041    0.0020 C.3       1 <0>        -0.1248
      3 C3          0.7182   -0.4975   -1.2568 C.3       1 <0>        -0.1169
      4 C4          0.7390   -2.0273   -1.2652 C.3       1 <0>        -0.1326
      5 C5          1.4551   -2.5207   -2.5240 C.3       1 <0>         0.1210
      6 N1          1.4750   -3.9856   -2.5321 N.am      1 <0>        -0.7345
      7 C6          2.0580   -4.6460   -3.5521 C.2       1 <0>         0.5077
      8 O1          2.5662   -4.0276   -4.4632 O.2       1 <0>        -0.5277
      9 C7          2.0784   -6.1529   -3.5603 C.3       1 <0>         0.1353
     10 H1          1.0558   -6.5301   -3.5526 H         1 <0>         0.1159
     11 C8          2.8184   -6.6597   -2.3208 C.3       1 <0>        -0.0607
     12 C9          2.7330   -8.1632   -2.2646 C.ar      1 <0>        -0.1754
     13 C10         1.6759   -8.7697   -1.6044 C.ar      1 <0>        -0.0790
     14 C11         1.5860  -10.1459   -1.5450 C.ar      1 <0>        -0.2404
     15 C12         2.5562  -10.9331   -2.1477 C.ar      1 <0>         0.1706
     16 C13         3.6279  -10.3236   -2.8175 C.ar      1 <0>        -0.1695
     17 C14         3.7027   -8.9278   -2.8742 C.ar      1 <0>        -0.0380
     18 C15         4.6637  -11.1474   -3.4610 C.2       1 <0>         0.5152
     19 O2          5.5964  -10.6119   -4.0440 O.co2     1 <0>        -0.7108
     20 O3          4.5920  -12.3677   -3.4129 O.co2     1 <0>        -0.6421
     21 O4          2.4696  -12.2851   -2.0894 O.3       1 <0>        -0.2288
     22 C16         1.3509  -12.8339   -1.3899 C.3       1 <0>        -0.0131
     23 C17         1.4225  -14.3387   -1.4298 C.2       1 <0>         0.4990
     24 O5          2.3459  -14.8900   -2.0041 O.co2     1 <0>        -0.6497
     25 O6          0.5570  -15.0048   -0.8879 O.co2     1 <0>        -0.7121
     26 N2          2.7641   -6.6253   -4.7657 N.am      1 <0>        -0.6955
     27 C18         2.0825   -6.7569   -5.9209 C.2       1 <0>         0.5301
     28 O7          0.9015   -6.4843   -5.9626 O.2       1 <0>        -0.5400
     29 C19         2.7879   -7.2429   -7.1608 C.3       1 <0>         0.1334
     30 H2          3.1954   -8.2377   -6.9806 H         1 <0>         0.1209
     31 C20         3.9255   -6.2814   -7.5103 C.3       1 <0>        -0.0804
     32 C21         4.7072   -6.8307   -8.6758 C.ar      1 <0>        -0.0631
     33 C22         5.7852   -7.6668   -8.4525 C.ar      1 <0>        -0.0999
     34 C23         6.5022   -8.1707   -9.5215 C.ar      1 <0>        -0.1135
     35 C24         6.1410   -7.8387  -10.8139 C.ar      1 <0>        -0.1227
     36 C25         5.0626   -7.0033  -11.0373 C.ar      1 <0>        -0.1148
     37 C26         4.3429   -6.5029   -9.9684 C.ar      1 <0>        -0.1042
     38 N3          1.8366   -7.2990   -8.2735 N.am      1 <0>        -0.7206
     39 C27         2.0554   -8.1378   -9.3055 C.2       1 <0>         0.5075
     40 O8          3.0398   -8.8463   -9.3129 O.2       1 <0>        -0.5164
     41 C28         1.0769   -8.1955  -10.4501 C.3       1 <0>        -0.1059
     42 C29         1.5569   -9.2199  -11.4803 C.3       1 <0>        -0.1621
     43 C30         0.5783   -9.2775  -12.6249 C.2       1 <0>         0.4930
     44 O9         -0.4112   -8.5654  -12.6175 O.co2     1 <0>        -0.7056
     45 O10         0.7762  -10.0364  -13.5585 O.co2     1 <0>        -0.7095
     46 H3          1.0039    1.9031    0.0027 H         1 <0>         0.0530
     47 H4         -0.5459    1.8868   -0.8726 H         1 <0>         0.0533
     48 H5         -0.5289    1.8773    0.9072 H         1 <0>         0.0511
     49 H6          0.5293   -0.3651    0.8851 H         1 <0>         0.0615
     50 H7         -1.0205   -0.3814    0.0098 H         1 <0>         0.0616
     51 H8          0.1910   -0.1364   -2.1398 H         1 <0>         0.0646
     52 H9          1.7408   -0.1202   -1.2645 H         1 <0>         0.0643
     53 H10         1.2661   -2.3884   -0.3821 H         1 <0>         0.0696
     54 H11        -0.2836   -2.4046   -1.2575 H         1 <0>         0.0694
     55 H12         0.9279   -2.1597   -3.4071 H         1 <0>         0.0638
     56 H13         2.4777   -2.1435   -2.5317 H         1 <0>         0.0641
     57 H14         1.0685   -4.4802   -1.8033 H         1 <0>         0.4006
     58 H15         3.8642   -6.3568   -2.3728 H         1 <0>         0.0775
     59 H16         2.3615   -6.2361   -1.4264 H         1 <0>         0.0803
     60 H17         0.9179   -8.1617   -1.1331 H         1 <0>         0.1066
     61 H18         0.7592  -10.6104   -1.0283 H         1 <0>         0.1183
     62 H19         4.5221   -8.4506   -3.3912 H         1 <0>         0.1220
     63 H20         1.3693  -12.4967   -0.3536 H         1 <0>         0.0472
     64 H21         0.4273  -12.5015   -1.8638 H         1 <0>         0.0490
     65 H22         3.7087   -6.8434   -4.7323 H         1 <0>         0.4094
     66 H23         3.5107   -5.3094   -7.7769 H         1 <0>         0.0763
     67 H24         4.5855   -6.1713   -6.6498 H         1 <0>         0.0822
     68 H25         6.0673   -7.9262   -7.4428 H         1 <0>         0.1213
     69 H26         7.3448   -8.8234   -9.3470 H         1 <0>         0.1147
     70 H27         6.7017   -8.2318  -11.6491 H         1 <0>         0.1102
     71 H28         4.7806   -6.7437  -12.0470 H         1 <0>         0.1115
     72 H29         3.4980   -5.8532  -10.1430 H         1 <0>         0.1088
     73 H30         1.0493   -6.7324   -8.2676 H         1 <0>         0.4037
     74 H31         0.0963   -8.4891  -10.0754 H         1 <0>         0.0866
     75 H32         1.0077   -7.2139  -10.9188 H         1 <0>         0.0836
     76 H33         2.5374   -8.9262  -11.8550 H         1 <0>         0.0630
     77 H34         1.6260  -10.2015  -11.0116 H         1 <0>         0.0642
@<TRIPOS>BOND
     1    1    2 1
     2    1   46 1
     3    1   47 1
     4    1   48 1
     5    2    3 1
     6    2   49 1
     7    2   50 1
     8    3    4 1
     9    3   51 1
    10    3   52 1
    11    4    5 1
    12    4   53 1
    13    4   54 1
    14    5    6 1
    15    5   55 1
    16    5   56 1
    17    6    7 am
    18    6   57 1
    19    7    8 2
    20    7    9 1
    21    9   10 1
    22    9   11 1
    23    9   26 1
    24   11   12 1
    25   11   58 1
    26   11   59 1
    27   12   17 ar
    28   12   13 ar
    29   13   14 ar
    30   13   60 1
    31   14   15 ar
    32   14   61 1
    33   15   16 ar
    34   15   21 1
    35   16   17 ar
    36   16   18 1
    37   17   62 1
    38   18   19 2
    39   18   20 1
    40   21   22 1
    41   22   23 1
    42   22   63 1
    43   22   64 1
    44   23   24 2
    45   23   25 1
    46   26   27 am
    47   26   65 1
    48   27   28 2
    49   27   29 1
    50   29   30 1
    51   29   31 1
    52   29   38 1
    53   31   32 1
    54   31   66 1
    55   31   67 1
    56   32   37 ar
    57   32   33 ar
    58   33   34 ar
    59   33   68 1
    60   34   35 ar
    61   34   69 1
    62   35   36 ar
    63   35   70 1
    64   36   37 ar
    65   36   71 1
    66   37   72 1
    67   38   39 am
    68   38   73 1
    69   39   40 2
    70   39   41 1
    71   41   42 1
    72   41   74 1
    73   41   75 1
    74   42   43 1
    75   42   76 1
    76   42   77 1
    77   43   44 2
    78   43   45 1
@<TRIPOS>MOLECULE
CHEMBL253065
   59    62     0     0     0
SMALL
USER_CHARGES

@<TRIPOS>ATOM
      1 C1         -0.0187    1.5258    0.0104 C.3       1 <0>        -0.1716
      2 C2          0.0021   -0.0041    0.0020 C.3       1 <0>         0.0954
      3 H1          0.5197   -0.3761   -0.8821 H         1 <0>         0.1299
      4 C3         -1.4311   -0.5691    0.0728 C.3       1 <0>         0.0537
      5 N1         -1.4454   -1.3352    1.3269 N.pl3     1 <0>        -0.5989
      6 C4         -0.3005   -1.2663    1.9007 C.cat     1 <0>         0.4877
      7 N2          0.6294   -0.5230    1.2295 N.pl3     1 <0>        -0.6474
      8 C5         -0.0031   -1.9515    3.2095 C.3       1 <0>         0.1697
      9 C6         -0.3317   -1.0057    4.3665 C.3       1 <0>        -0.0678
     10 C7         -0.1514   -1.7312    5.6750 C.ar      1 <0>        -0.1210
     11 C8         -1.2110   -2.4203    6.2349 C.ar      1 <0>        -0.1075
     12 C9         -1.0456   -3.0858    7.4352 C.ar      1 <0>        -0.1071
     13 C10         0.1793   -3.0625    8.0754 C.ar      1 <0>        -0.0280
     14 C11         1.2391   -2.3742    7.5150 C.ar      1 <0>        -0.1002
     15 C12         1.0750   -1.7123    6.3126 C.ar      1 <0>        -0.1008
     16 C13         0.3593   -3.7872    9.3844 C.3       1 <0>        -0.5613
     17 C14         1.0009   -2.8703   10.4625 C.3       1 <0>        -0.1404
     18 C15         1.9943   -3.6813   11.2389 C.2       1 <0>         0.4300
     19 O1          2.4307   -3.2454   12.4388 O.3       1 <0>        -0.6524
     20 N3          2.4287   -4.7892   10.7624 N.2       1 <0>        -0.9011
     21 S1          1.6926   -5.0525    9.2812 S.o2      1 <0>         2.4547
     22 O2          1.1537   -6.3657    9.3459 O.2       1 <0>        -0.9772
     23 O3          2.6580   -4.6952    8.3016 O.2       1 <0>        -0.9813
     24 N4          1.4162   -2.3113    3.2609 N.pl3     1 <0>        -1.1071
     25 S2          1.9026   -3.8285    2.8096 S.o2      1 <0>         2.6758
     26 O4          3.3170   -3.8579    2.9428 O.2       1 <0>        -0.9146
     27 O5          1.0543   -4.7453    3.4873 O.2       1 <0>        -0.9131
     28 C16         1.5550   -3.9972    1.0905 C.ar      1 <0>        -0.6940
     29 C17         0.3289   -4.4846    0.6777 C.ar      1 <0>        -0.0041
     30 C18         0.0563   -4.6169   -0.6708 C.ar      1 <0>        -0.1343
     31 C19         1.0096   -4.2614   -1.6070 C.ar      1 <0>        -0.0134
     32 C20         2.2350   -3.7732   -1.1943 C.ar      1 <0>        -0.1967
     33 C21         2.5061   -3.6369    0.1546 C.ar      1 <0>         0.0317
     34 C22         3.2743   -3.3862   -2.2147 C.3       1 <0>         0.5085
     35 F1          2.7707   -3.6087   -3.5008 F         1 <0>        -0.1716
     36 F2          3.5919   -2.0318   -2.0661 F         1 <0>        -0.1749
     37 F3          4.4250   -4.1586   -2.0244 F         1 <0>        -0.1657
     38 H2          1.0039    1.9031    0.0027 H         1 <0>         0.0843
     39 H3         -0.5459    1.8868   -0.8726 H         1 <0>         0.0953
     40 H4         -0.5289    1.8773    0.9072 H         1 <0>         0.0750
     41 H5         -2.1602    0.2404    0.1105 H         1 <0>         0.1331
     42 H6         -1.6272   -1.2227   -0.7772 H         1 <0>         0.1303
     43 H7          1.5437   -0.3631    1.5112 H         1 <0>         0.4571
     44 H8         -0.6097   -2.8531    3.2937 H         1 <0>         0.1548
     45 H9          0.3364   -0.1451    4.3332 H         1 <0>         0.0990
     46 H10        -1.3642   -0.6679    4.2775 H         1 <0>         0.1016
     47 H11        -2.1680   -2.4384    5.7347 H         1 <0>         0.1238
     48 H12        -1.8736   -3.6235    7.8730 H         1 <0>         0.1309
     49 H13         2.1960   -2.3558    8.0153 H         1 <0>         0.1414
     50 H14         1.9040   -1.1777    5.8729 H         1 <0>         0.1241
     51 H15        -0.5790   -4.2202    9.7312 H         1 <0>         0.1435
     52 H16         1.5060   -2.0335    9.9802 H         1 <0>         0.1033
     53 H17         0.2280   -2.4951   11.1334 H         1 <0>         0.1085
     54 H18         2.0709   -1.6608    3.5593 H         1 <0>         0.4340
     55 H19        -0.4158   -4.7623    1.4089 H         1 <0>         0.1526
     56 H20        -0.9013   -4.9983   -0.9933 H         1 <0>         0.1518
     57 H21         0.7968   -4.3654   -2.6607 H         1 <0>         0.1530
     58 H22         3.4623   -3.2519    0.4770 H         1 <0>         0.1563
     59 H23        -2.2102   -1.8226    1.6710 H         1 <0>         0.4624
@<TRIPOS>BOND
     1    1    2 1
     2    1   38 1
     3    1   39 1
     4    1   40 1
     5    2    3 1
     6    2    7 1
     7    2    4 1
     8    4    5 1
     9    4   41 1
    10    4   42 1
    11    5    6 2
    12    5   59 1
    13    6    7 1
    14    6    8 1
    15    7   43 1
    16    8    9 1
    17    8   24 1
    18    8   44 1
    19    9   10 1
    20    9   45 1
    21    9   46 1
    22   10   15 ar
    23   10   11 ar
    24   11   12 ar
    25   11   47 1
    26   12   13 ar
    27   12   48 1
    28   13   14 ar
    29   13   16 1
    30   14   15 ar
    31   14   49 1
    32   15   50 1
    33   16   21 1
    34   16   17 1
    35   16   51 1
    36   17   18 1
    37   17   52 1
    38   17   53 1
    39   18   19 1
    40   18   20 2
    41   20   21 1
    42   21   22 2
    43   21   23 2
    44   24   25 1
    45   24   54 1
    46   25   26 2
    47   25   27 2
    48   25   28 1
    49   28   33 ar
    50   28   29 ar
    51   29   30 ar
    52   29   55 1
    53   30   31 ar
    54   30   56 1
    55   31   32 ar
    56   31   57 1
    57   32   33 ar
    58   32   34 1
    59   33   58 1
    60   34   35 1
    61   34   36 1
    62   34   37 1
@<TRIPOS>MOLECULE
CHEMBL253065__1
   59    62     0     0     0
SMALL
USER_CHARGES

@<TRIPOS>ATOM
      1 C1         -0.0187    1.5258    0.0104 C.3       1 <0>        -0.1720
      2 C2          0.0021   -0.0041    0.0020 C.3       1 <0>         0.0956
      3 H1          0.5197   -0.3761   -0.8821 H         1 <0>         0.1297
      4 C3         -1.4311   -0.5691    0.0728 C.3       1 <0>         0.0538
      5 N1         -1.4454   -1.3352    1.3269 N.pl3     1 <0>        -0.5992
      6 C4         -0.3005   -1.2663    1.9007 C.cat     1 <0>         0.4877
      7 N2          0.6294   -0.5230    1.2295 N.pl3     1 <0>        -0.6474
      8 C5         -0.0031   -1.9515    3.2095 C.3       1 <0>         0.1707
      9 C6         -0.3317   -1.0057    4.3665 C.3       1 <0>        -0.0684
     10 C7         -0.1514   -1.7312    5.6750 C.ar      1 <0>        -0.1209
     11 C8         -1.2110   -2.4203    6.2349 C.ar      1 <0>        -0.1062
     12 C9         -1.0456   -3.0858    7.4352 C.ar      1 <0>        -0.1079
     13 C10         0.1793   -3.0625    8.0754 C.ar      1 <0>        -0.0165
     14 C11         1.2391   -2.3742    7.5150 C.ar      1 <0>        -0.1023
     15 C12         1.0750   -1.7123    6.3126 C.ar      1 <0>        -0.0963
     16 C13         0.3593   -3.7872    9.3844 C.3       1 <0>        -0.5623
     17 C14         1.6111   -4.7076    9.3616 C.3       1 <0>        -0.1446
     18 C15         2.7626   -3.9501    9.9509 C.2       1 <0>         0.4297
     19 O1          4.0269   -4.3693    9.7360 O.3       1 <0>        -0.6528
     20 N3          2.5457   -2.9037   10.6589 N.2       1 <0>        -0.9027
     21 S1          0.8925   -2.6433   10.7248 S.o2      1 <0>         2.4545
     22 O2          0.6997   -1.2881   10.3435 O.2       1 <0>        -0.9725
     23 O3          0.4769   -3.1215   11.9968 O.2       1 <0>        -0.9852
     24 N4          1.4162   -2.3113    3.2609 N.pl3     1 <0>        -1.1069
     25 S2          1.9026   -3.8285    2.8096 S.o2      1 <0>         2.6778
     26 O4          3.3170   -3.8579    2.9428 O.2       1 <0>        -0.9163
     27 O5          1.0543   -4.7453    3.4873 O.2       1 <0>        -0.9163
     28 C16         1.5550   -3.9972    1.0905 C.ar      1 <0>        -0.6939
     29 C17         0.3289   -4.4846    0.6777 C.ar      1 <0>        -0.0039
     30 C18         0.0563   -4.6169   -0.6708 C.ar      1 <0>        -0.1345
     31 C19         1.0096   -4.2614   -1.6070 C.ar      1 <0>        -0.0132
     32 C20         2.2350   -3.7732   -1.1943 C.ar      1 <0>        -0.1964
     33 C21         2.5061   -3.6369    0.1546 C.ar      1 <0>         0.0319
     34 C22         3.2743   -3.3862   -2.2147 C.3       1 <0>         0.5084
     35 F1          2.7707   -3.6087   -3.5008 F         1 <0>        -0.1716
     36 F2          3.5919   -2.0318   -2.0661 F         1 <0>        -0.1745
     37 F3          4.4250   -4.1586   -2.0244 F         1 <0>        -0.1658
     38 H2          1.0039    1.9031    0.0027 H         1 <0>         0.0845
     39 H3         -0.5459    1.8868   -0.8726 H         1 <0>         0.0951
     40 H4         -0.5289    1.8773    0.9072 H         1 <0>         0.0754
     41 H5         -2.1602    0.2404    0.1105 H         1 <0>         0.1330
     42 H6         -1.6272   -1.2227   -0.7772 H         1 <0>         0.1300
     43 H7          1.5437   -0.3631    1.5112 H         1 <0>         0.4573
     44 H8         -0.6097   -2.8531    3.2937 H         1 <0>         0.1544
     45 H9          0.3364   -0.1451    4.3332 H         1 <0>         0.0997
     46 H10        -1.3642   -0.6679    4.2775 H         1 <0>         0.1020
     47 H11        -2.1680   -2.4384    5.7347 H         1 <0>         0.1230
     48 H12        -1.8736   -3.6235    7.8730 H         1 <0>         0.1287
     49 H13         2.1960   -2.3558    8.0153 H         1 <0>         0.1357
     50 H14         1.9040   -1.1777    5.8729 H         1 <0>         0.1239
     51 H15        -0.5400   -4.3378    9.6607 H         1 <0>         0.1417
     52 H16         1.4195   -5.6036    9.9521 H         1 <0>         0.1093
     53 H17         1.8427   -4.9879    8.3340 H         1 <0>         0.1066
     54 H18         2.0709   -1.6608    3.5593 H         1 <0>         0.4347
     55 H19        -0.4158   -4.7623    1.4089 H         1 <0>         0.1523
     56 H20        -0.9013   -4.9983   -0.9933 H         1 <0>         0.1516
     57 H21         0.7968   -4.3654   -2.6607 H         1 <0>         0.1530
     58 H22         3.4623   -3.2519    0.4770 H         1 <0>         0.1565
     59 H23        -2.2102   -1.8226    1.6710 H         1 <0>         0.4622
@<TRIPOS>BOND
     1    1    2 1
     2    1   38 1
     3    1   39 1
     4    1   40 1
     5    2    3 1
     6    2    7 1
     7    2    4 1
     8    4    5 1
     9    4   41 1
    10    4   42 1
    11    5    6 2
    12    5   59 1
    13    6    7 1
    14    6    8 1
    15    7   43 1
    16    8    9 1
    17    8   24 1
    18    8   44 1
    19    9   10 1
    20    9   45 1
    21    9   46 1
    22   10   15 ar
    23   10   11 ar
    24   11   12 ar
    25   11   47 1
    26   12   13 ar
    27   12   48 1
    28   13   14 ar
    29   13   16 1
    30   14   15 ar
    31   14   49 1
    32   15   50 1
    33   16   21 1
    34   16   17 1
    35   16   51 1
    36   17   18 1
    37   17   52 1
    38   17   53 1
    39   18   19 1
    40   18   20 2
    41   20   21 1
    42   21   22 2
    43   21   23 2
    44   24   25 1
    45   24   54 1
    46   25   26 2
    47   25   27 2
    48   25   28 1
    49   28   33 ar
    50   28   29 ar
    51   29   30 ar
    52   29   55 1
    53   30   31 ar
    54   30   56 1
    55   31   32 ar
    56   31   57 1
    57   32   33 ar
    58   32   34 1
    59   33   58 1
    60   34   35 1
    61   34   36 1
    62   34   37 1
@<TRIPOS>MOLECULE
CHEMBL253065__2
   59    62     0     0     0
SMALL
USER_CHARGES

@<TRIPOS>ATOM
      1 C1          0.7881    1.7534    0.6325 C.3       1 <0>        -0.1771
      2 C2          0.8159    0.2266    0.5375 C.3       1 <0>         0.0976
      3 H1          1.5492   -0.0989   -0.2004 H         1 <0>         0.1339
      4 C3         -0.5834   -0.3239    0.1950 C.3       1 <0>         0.0533
      5 N1         -0.9242   -1.1627    1.3528 N.pl3     1 <0>        -0.6009
      6 C4          0.0293   -1.1420    2.2102 C.cat     1 <0>         0.4952
      7 N2          1.1003   -0.3718    1.8530 N.pl3     1 <0>        -0.6361
      8 C5         -0.0254   -1.9070    3.5074 C.3       1 <0>         0.1769
      9 C6         -0.6502   -1.0274    4.5923 C.3       1 <0>        -0.0783
     10 C7          0.2569    0.1424    4.8747 C.ar      1 <0>        -0.1357
     11 C8          1.3119    0.0018    5.7568 C.ar      1 <0>        -0.1068
     12 C9          2.1440    1.0748    6.0158 C.ar      1 <0>        -0.1072
     13 C10         1.9214    2.2884    5.3924 C.ar      1 <0>        -0.0257
     14 C11         0.8669    2.4287    4.5096 C.ar      1 <0>        -0.0972
     15 C12         0.0374    1.3545    4.2473 C.ar      1 <0>        -0.1073
     16 C13         2.8279    3.4584    5.6755 C.3       1 <0>        -0.5624
     17 C14         2.0182    4.7542    5.9588 C.3       1 <0>        -0.1413
     18 C15         2.7150    5.9000    5.2889 C.2       1 <0>         0.4295
     19 O1          2.4349    7.1678    5.6559 O.3       1 <0>        -0.6467
     20 N3          3.5773    5.6749    4.3674 N.2       1 <0>        -0.8990
     21 S1          3.7064    4.0183    4.1576 S.o2      1 <0>         2.4557
     22 O2          5.0949    3.7263    4.2366 O.2       1 <0>        -0.9767
     23 O3          2.9511    3.7168    2.9923 O.2       1 <0>        -0.9875
     24 N4         -0.8375   -3.1133    3.3291 N.pl3     1 <0>        -1.1176
     25 S2         -0.1077   -4.5591    2.9838 S.o2      1 <0>         2.6855
     26 O4         -1.1416   -5.5321    2.9247 O.2       1 <0>        -0.9256
     27 O5          0.7754   -4.3189    1.8967 O.2       1 <0>        -0.9372
     28 C16         0.8995   -4.9780    4.3675 C.ar      1 <0>        -0.6878
     29 C17         2.1868   -4.4823    4.4609 C.ar      1 <0>        -0.0001
     30 C18         2.9768   -4.8109    5.5463 C.ar      1 <0>        -0.1289
     31 C19         2.4796   -5.6348    6.5390 C.ar      1 <0>        -0.0067
     32 C20         1.1924   -6.1295    6.4462 C.ar      1 <0>        -0.1958
     33 C21         0.4007   -5.7974    5.3625 C.ar      1 <0>         0.0349
     34 C22         0.6506   -7.0280    7.5280 C.3       1 <0>         0.5090
     35 F1          1.5829   -7.1213    8.5670 F         1 <0>        -0.1709
     36 F2         -0.5453   -6.4953    8.0211 F         1 <0>        -0.1714
     37 F3          0.4114   -8.3013    7.0003 F         1 <0>        -0.1697
     38 H2          1.7753    2.1178    0.9164 H         1 <0>         0.1011
     39 H3          0.5104    2.1725   -0.3346 H         1 <0>         0.0925
     40 H4          0.0587    2.0575    1.3832 H         1 <0>         0.0740
     41 H5         -1.2996    0.4908    0.0887 H         1 <0>         0.1315
     42 H6         -0.5466   -0.9236   -0.7145 H         1 <0>         0.1299
     43 H7          1.9077   -0.2401    2.3742 H         1 <0>         0.4587
     44 H8          0.9842   -2.1895    3.8055 H         1 <0>         0.1409
     45 H9         -1.6187   -0.6620    4.2507 H         1 <0>         0.0973
     46 H10        -0.7829   -1.6123    5.5025 H         1 <0>         0.1198
     47 H11         1.4859   -0.9463    6.2438 H         1 <0>         0.1285
     48 H12         2.9678    0.9651    6.7055 H         1 <0>         0.1333
     49 H13         0.6927    3.3769    4.0228 H         1 <0>         0.1393
     50 H14        -0.7842    1.4631    3.5548 H         1 <0>         0.1197
     51 H15         3.5248    3.2349    6.4833 H         1 <0>         0.1442
     52 H16         1.0095    4.6524    5.5585 H         1 <0>         0.1032
     53 H17         1.9705    4.9304    7.0334 H         1 <0>         0.1097
     54 H18        -1.8026   -3.0650    3.4133 H         1 <0>         0.4339
     55 H19         2.5752   -3.8387    3.6854 H         1 <0>         0.1484
     56 H20         3.9826   -4.4243    5.6189 H         1 <0>         0.1544
     57 H21         3.0972   -5.8921    7.3869 H         1 <0>         0.1547
     58 H22        -0.6065   -6.1809    5.2919 H         1 <0>         0.1561
     59 H23        -1.7508   -1.6601    1.4537 H         1 <0>         0.4549
@<TRIPOS>BOND
     1    1    2 1
     2    1   38 1
     3    1   39 1
     4    1   40 1
     5    2    3 1
     6    2    7 1
     7    2    4 1
     8    4    5 1
     9    4   41 1
    10    4   42 1
    11    5    6 2
    12    5   59 1
    13    6    7 1
    14    6    8 1
    15    7   43 1
    16    8    9 1
    17    8   24 1
    18    8   44 1
    19    9   10 1
    20    9   45 1
    21    9   46 1
    22   10   15 ar
    23   10   11 ar
    24   11   12 ar
    25   11   47 1
    26   12   13 ar
    27   12   48 1
    28   13   14 ar
    29   13   16 1
    30   14   15 ar
    31   14   49 1
    32   15   50 1
    33   16   21 1
    34   16   17 1
    35   16   51 1
    36   17   18 1
    37   17   52 1
    38   17   53 1
    39   18   19 1
    40   18   20 2
    41   20   21 1
    42   21   22 2
    43   21   23 2
    44   24   25 1
    45   24   54 1
    46   25   26 2
    47   25   27 2
    48   25   28 1
    49   28   33 ar
    50   28   29 ar
    51   29   30 ar
    52   29   55 1
    53   30   31 ar
    54   30   56 1
    55   31   32 ar
    56   31   57 1
    57   32   33 ar
    58   32   34 1
    59   33   58 1
    60   34   35 1
    61   34   36 1
    62   34   37 1
@<TRIPOS>MOLECULE
CHEMBL253065__3
   59    62     0     0     0
SMALL
USER_CHARGES

@<TRIPOS>ATOM
      1 C1         -0.0187    1.5258    0.0104 C.3       1 <0>        -0.1727
      2 C2          0.0021   -0.0041    0.0020 C.3       1 <0>         0.0980
      3 H1          0.5197   -0.3761   -0.8821 H         1 <0>         0.1336
      4 C3         -1.4311   -0.5691    0.0728 C.3       1 <0>         0.0510
      5 N1         -1.4454   -1.3352    1.3269 N.pl3     1 <0>        -0.5957
      6 C4         -0.3005   -1.2663    1.9007 C.cat     1 <0>         0.5011
      7 N2          0.6294   -0.5230    1.2295 N.pl3     1 <0>        -0.6512
      8 C5         -0.0031   -1.9515    3.2095 C.3       1 <0>         0.1750
      9 C6         -0.3317   -1.0057    4.3665 C.3       1 <0>        -0.0722
     10 C7          0.0799   -1.6430    5.6686 C.ar      1 <0>        -0.1202
     11 C8         -0.8137   -2.4377    6.3620 C.ar      1 <0>        -0.1076
     12 C9         -0.4362   -3.0223    7.5564 C.ar      1 <0>        -0.1077
     13 C10         0.8351   -2.8125    8.0572 C.ar      1 <0>        -0.0124
     14 C11         1.7290   -2.0185    7.3634 C.ar      1 <0>        -0.1010
     15 C12         1.3529   -1.4374    6.1668 C.ar      1 <0>        -0.0974
     16 C13         1.2463   -3.4490    9.3599 C.3       1 <0>        -0.5609
     17 C14         2.6003   -4.1999    9.2275 C.3       1 <0>        -0.1406
     18 C15         3.6959   -3.2744    9.6638 C.2       1 <0>         0.4318
     19 O1          4.9753   -3.5358    9.3240 O.3       1 <0>        -0.6534
     20 N3          3.4169   -2.2345   10.3593 N.2       1 <0>        -0.9017
     21 S1          1.7599   -2.1874   10.5985 S.o2      1 <0>         2.4539
     22 O2          1.3492   -0.8867   10.1999 O.2       1 <0>        -0.9716
     23 O3          1.5474   -2.6583   11.9222 O.2       1 <0>        -0.9839
     24 N4         -0.8185   -3.1633    3.3227 N.pl3     1 <0>        -1.1139
     25 S2         -0.1931   -4.6276    2.8676 S.o2      1 <0>         2.6878
     26 O4         -1.2023   -5.5959    3.1186 O.2       1 <0>        -0.9281
     27 O5          0.3812   -4.4417    1.5812 O.2       1 <0>        -0.9465
     28 C16         1.1367   -4.9900    3.9652 C.ar      1 <0>        -0.6878
     29 C17         2.4188   -4.5724    3.6595 C.ar      1 <0>        -0.0010
     30 C18         3.4619   -4.8567    4.5205 C.ar      1 <0>        -0.1265
     31 C19         3.2233   -5.5583    5.6877 C.ar      1 <0>         0.0001
     32 C20         1.9415   -5.9749    5.9938 C.ar      1 <0>        -0.1906
     33 C21         0.8973   -5.6868    5.1346 C.ar      1 <0>         0.0409
     34 C22         1.6814   -6.7401    7.2658 C.3       1 <0>         0.5026
     35 F1          2.8820   -6.9043    7.9649 F         1 <0>        -0.1641
     36 F2          0.7731   -6.0310    8.0591 F         1 <0>        -0.1645
     37 F3          1.1478   -7.9952    6.9542 F         1 <0>        -0.1746
     38 H2          1.0039    1.9031    0.0027 H         1 <0>         0.0846
     39 H3         -0.5459    1.8868   -0.8726 H         1 <0>         0.0949
     40 H4         -0.5289    1.8773    0.9072 H         1 <0>         0.0738
     41 H5         -2.1602    0.2404    0.1105 H         1 <0>         0.1320
     42 H6         -1.6272   -1.2227   -0.7772 H         1 <0>         0.1318
     43 H7          1.5437   -0.3631    1.5112 H         1 <0>         0.4589
     44 H8          1.0529   -2.2192    3.2478 H         1 <0>         0.1451
     45 H9          0.2085   -0.0683    4.2341 H         1 <0>         0.1049
     46 H10        -1.4036   -0.8085    4.3813 H         1 <0>         0.0978
     47 H11        -1.8069   -2.6017    5.9707 H         1 <0>         0.1215
     48 H12        -1.1345   -3.6426    8.0985 H         1 <0>         0.1282
     49 H13         2.7220   -1.8543    7.7548 H         1 <0>         0.1336
     50 H14         2.0525   -0.8201    5.6228 H         1 <0>         0.1252
     51 H15         0.4625   -4.0984    9.7497 H         1 <0>         0.1426
     52 H16         2.5929   -5.0860    9.8623 H         1 <0>         0.1066
     53 H17         2.7582   -4.4933    8.1897 H         1 <0>         0.0947
     54 H18        -1.7246   -3.1080    3.6643 H         1 <0>         0.4321
     55 H19         2.6052   -4.0244    2.7477 H         1 <0>         0.1445
     56 H20         4.4635   -4.5312    4.2813 H         1 <0>         0.1518
     57 H21         4.0385   -5.7811    6.3601 H         1 <0>         0.1583
     58 H22        -0.1049   -6.0091    5.3756 H         1 <0>         0.1509
     59 H23        -2.2102   -1.8226    1.6710 H         1 <0>         0.4582
@<TRIPOS>BOND
     1    1    2 1
     2    1   38 1
     3    1   39 1
     4    1   40 1
     5    2    3 1
     6    2    7 1
     7    2    4 1
     8    4    5 1
     9    4   41 1
    10    4   42 1
    11    5    6 2
    12    5   59 1
    13    6    7 1
    14    6    8 1
    15    7   43 1
    16    8    9 1
    17    8   24 1
    18    8   44 1
    19    9   10 1
    20    9   45 1
    21    9   46 1
    22   10   15 ar
    23   10   11 ar
    24   11   12 ar
    25   11   47 1
    26   12   13 ar
    27   12   48 1
    28   13   14 ar
    29   13   16 1
    30   14   15 ar
    31   14   49 1
    32   15   50 1
    33   16   21 1
    34   16   17 1
    35   16   51 1
    36   17   18 1
    37   17   52 1
    38   17   53 1
    39   18   19 1
    40   18   20 2
    41   20   21 1
    42   21   22 2
    43   21   23 2
    44   24   25 1
    45   24   54 1
    46   25   26 2
    47   25   27 2
    48   25   28 1
    49   28   33 ar
    50   28   29 ar
    51   29   30 ar
    52   29   55 1
    53   30   31 ar
    54   30   56 1
    55   31   32 ar
    56   31   57 1
    57   32   33 ar
    58   32   34 1
    59   33   58 1
    60   34   35 1
    61   34   36 1
    62   34   37 1
@<TRIPOS>MOLECULE
CHEMBL140757
   38    40     0     0     0
SMALL
USER_CHARGES

@<TRIPOS>ATOM
      1 C1         -0.0167    1.3776    0.0096 C.ar      1 <0>        -0.1756
      2 C2          1.1849    2.0698    0.0019 C.ar      1 <0>        -0.0553
      3 C3          2.3651    1.3426   -0.0133 C.ar      1 <0>        -0.1210
      4 C4          2.3054   -0.0383   -0.0202 C.ar      1 <0>         0.1050
      5 N1          1.1443   -0.6632   -0.0129 N.ar      1 <0>        -0.4857
      6 C5          0.0021   -0.0041    0.0020 C.ar      1 <0>         0.0895
      7 C6          3.6964    2.0488   -0.0227 C.3       1 <0>         0.0961
      8 N2          4.1424    2.2713    1.3591 N.3       1 <0>        -0.5277
      9 C7          5.3145    3.1569    1.3980 C.3       1 <0>         0.0584
     10 C8          5.5338    3.6778    2.8221 C.3       1 <0>        -0.0373
     11 C9          5.5418    2.4836    3.7658 C.2       1 <0>        -0.0189
     12 C10         5.0358    1.2939    3.3691 C.2       1 <0>        -0.3093
     13 S1          5.2555    0.2261    4.7598 S.3       1 <0>         0.2151
     14 C11         5.9842    1.2952    5.8310 C.2       1 <0>         0.0699
     15 C12         6.0636    2.4879    5.1192 C.2       1 <0>        -0.2715
     16 C13         6.6470    3.6911    5.7085 C.2       1 <0>         0.5428
     17 O1          6.7034    4.7267    5.0568 O.co2     1 <0>        -0.6983
     18 O2          7.0795    3.6640    6.8542 O.co2     1 <0>        -0.6930
     19 N3          6.4076    1.0470    7.1227 N.am      1 <0>        -0.5884
     20 C14         6.2513   -0.1794    7.6592 C.2       1 <0>         0.4368
     21 O3          5.7387   -1.0658    7.0078 O.2       1 <0>        -0.5263
     22 C15         6.7094   -0.4479    9.0567 C.2       1 <0>         0.5060
     23 O4          6.5679   -1.5586    9.5425 O.co2     1 <0>        -0.6497
     24 O5          7.2249    0.4435    9.7118 O.co2     1 <0>        -0.6555
     25 C16         4.4288    0.9915    2.0348 C.3       1 <0>         0.1641
     26 H1         -0.9552    1.9117    0.0259 H         1 <0>         0.1314
     27 H2          1.2009    3.1496    0.0072 H         1 <0>         0.1343
     28 H3          3.2203   -0.6121   -0.0320 H         1 <0>         0.1520
     29 H4         -0.9294   -0.5505    0.0083 H         1 <0>         0.1510
     30 H5          4.4293    1.4355   -0.5468 H         1 <0>         0.0445
     31 H6          3.5953    3.0079   -0.5308 H         1 <0>         0.0846
     32 H7          6.1965    2.6035    1.0758 H         1 <0>         0.0338
     33 H8          5.1532    3.9996    0.7258 H         1 <0>         0.0705
     34 H9          6.4891    4.1995    2.8802 H         1 <0>         0.0958
     35 H10         4.7256    4.3567    3.0943 H         1 <0>         0.0746
     36 H11         6.8173    1.7555    7.6434 H         1 <0>         0.4421
     37 H12         3.5034    0.4317    2.1699 H         1 <0>         0.0766
     38 H13         5.1284    0.4079    1.4362 H         1 <0>         0.0384
@<TRIPOS>BOND
     1    1    6 ar
     2    1    2 ar
     3    1   26 1
     4    2    3 ar
     5    2   27 1
     6    3    4 ar
     7    3    7 1
     8    4    5 ar
     9    4   28 1
    10    5    6 ar
    11    6   29 1
    12    7    8 1
    13    7   30 1
    14    7   31 1
    15    8   25 1
    16    8    9 1
    17    9   10 1
    18    9   32 1
    19    9   33 1
    20   10   11 1
    21   10   34 1
    22   10   35 1
    23   11   15 1
    24   11   12 2
    25   12   13 1
    26   12   25 1
    27   13   14 1
    28   14   15 2
    29   14   19 1
    30   15   16 1
    31   16   17 2
    32   16   18 1
    33   19   20 am
    34   19   36 1
    35   20   21 2
    36   20   22 1
    37   22   23 2
    38   22   24 1
    39   25   37 1
    40   25   38 1
@<TRIPOS>MOLECULE
CHEMBL140757__1
   39    41     0     0     0
SMALL
USER_CHARGES

@<TRIPOS>ATOM
      1 C1         -0.0167    1.3776    0.0096 C.ar      1 <0>        -0.1693
      2 C2          1.1849    2.0698    0.0019 C.ar      1 <0>        -0.0471
      3 C3          2.3651    1.3426   -0.0133 C.ar      1 <0>        -0.2090
      4 C4          2.3054   -0.0383   -0.0202 C.ar      1 <0>         0.1318
      5 N1          1.1443   -0.6632   -0.0129 N.ar      1 <0>        -0.4763
      6 C5          0.0021   -0.0041    0.0020 C.ar      1 <0>         0.1292
      7 C6          3.6964    2.0488   -0.0227 C.3       1 <0>         0.0504
      8 N2          4.1424    2.2713    1.3591 N.4       1 <0>        -0.3829
      9 C7          5.3767    3.0673    1.3523 C.3       1 <0>        -0.0026
     10 C8          5.6866    3.5741    2.7649 C.3       1 <0>        -0.0685
     11 C9          5.6557    2.3790    3.7072 C.2       1 <0>        -0.0080
     12 C10         5.0641    1.2250    3.3228 C.2       1 <0>        -0.4074
     13 S1          5.2661    0.1369    4.7001 S.3       1 <0>         0.2913
     14 C11         6.0949    1.1530    5.7503 C.2       1 <0>         0.0990
     15 C12         6.2225    2.3434    5.0413 C.2       1 <0>        -0.2784
     16 C13         6.8979    3.5052    5.6152 C.2       1 <0>         0.5399
     17 O1          6.9950    4.5396    4.9663 O.co2     1 <0>        -0.6976
     18 O2          7.3669    3.4447    6.7451 O.co2     1 <0>        -0.6764
     19 N3          6.5465    0.8711    7.0254 N.am      1 <0>        -0.5860
     20 C14         6.3346   -0.3472    7.5614 C.2       1 <0>         0.4421
     21 O3          5.7470   -1.1965    6.9242 O.2       1 <0>        -0.5183
     22 C15         6.8232   -0.6522    8.9410 C.2       1 <0>         0.5048
     23 O4          6.6313   -1.7554    9.4264 O.co2     1 <0>        -0.6376
     24 O5          7.4141    0.2021    9.5818 O.co2     1 <0>        -0.6466
     25 C16         4.3944    0.9718    2.0088 C.3       1 <0>         0.1245
     26 H1         -0.9552    1.9117    0.0259 H         1 <0>         0.1465
     27 H2          1.2009    3.1496    0.0072 H         1 <0>         0.1440
     28 H3          3.2203   -0.6121   -0.0320 H         1 <0>         0.1639
     29 H4         -0.9294   -0.5505    0.0083 H         1 <0>         0.1662
     30 H5          4.4293    1.4355   -0.5468 H         1 <0>         0.1376
     31 H6          3.5953    3.0079   -0.5308 H         1 <0>         0.1366
     32 H7          6.2031    2.4495    1.0008 H         1 <0>         0.1266
     33 H8          5.2541    3.9181    0.6821 H         1 <0>         0.1264
     34 H9          6.6751    4.0331    2.7836 H         1 <0>         0.1382
     35 H10         4.9350    4.3028    3.0685 H         1 <0>         0.0955
     36 H11         7.0162    1.5500    7.5347 H         1 <0>         0.4483
     37 H12         3.4496    0.4533    2.1719 H         1 <0>         0.1208
     38 H13         5.0429    0.3648    1.3770 H         1 <0>         0.1257
     39 H14         3.4260    2.7677    1.8675 H         1 <0>         0.4228
@<TRIPOS>BOND
     1    1    6 ar
     2    1    2 ar
     3    1   26 1
     4    2    3 ar
     5    2   27 1
     6    3    4 ar
     7    3    7 1
     8    4    5 ar
     9    4   28 1
    10    5    6 ar
    11    6   29 1
    12    7    8 1
    13    7   30 1
    14    7   31 1
    15    8   25 1
    16    8    9 1
    17    8   39 1
    18    9   10 1
    19    9   32 1
    20    9   33 1
    21   10   11 1
    22   10   34 1
    23   10   35 1
    24   11   15 1
    25   11   12 2
    26   12   13 1
    27   12   25 1
    28   13   14 1
    29   14   15 2
    30   14   19 1
    31   15   16 1
    32   16   17 2
    33   16   18 1
    34   19   20 am
    35   19   36 1
    36   20   21 2
    37   20   22 1
    38   22   23 2
    39   22   24 1
    40   25   37 1
    41   25   38 1
@<TRIPOS>MOLECULE
CHEMBL254513
   53    56     0     0     0
SMALL
USER_CHARGES

@<TRIPOS>ATOM
      1 C1         -0.8931    1.0046   -0.0708 C.ar      1 <0>        -0.1332
      2 C2          0.1197    1.9447   -0.0265 C.ar      1 <0>        -0.0158
      3 C3          1.4398    1.5370    0.0116 C.ar      1 <0>        -0.2026
      4 C4          1.7475    0.1891    0.0060 C.ar      1 <0>         0.0329
      5 C5          0.7350   -0.7506   -0.0374 C.ar      1 <0>        -0.6821
      6 C6         -0.5855   -0.3428   -0.0770 C.ar      1 <0>         0.0063
      7 S1          1.1271   -2.4684   -0.0458 S.o2      1 <0>         2.6909
      8 O1          0.0549   -3.1266   -0.7065 O.2       1 <0>        -0.9439
      9 O2          2.4739   -2.5754   -0.4864 O.2       1 <0>        -0.9482
     10 N1          1.1015   -2.9842    1.5276 N.pl3     1 <0>        -1.0989
     11 C7         -0.1496   -2.9509    2.2891 C.3       1 <0>         0.2511
     12 C8          0.1487   -2.5842    3.7442 C.3       1 <0>        -0.0754
     13 C9         -1.1468   -2.4162    4.4956 C.ar      1 <0>        -0.0983
     14 C10        -1.8122   -1.2049    4.4639 C.ar      1 <0>        -0.1193
     15 C11        -3.0005   -1.0509    5.1532 C.ar      1 <0>        -0.1144
     16 C12        -3.5237   -2.1082    5.8737 C.ar      1 <0>        -0.0469
     17 C13        -2.8588   -3.3198    5.9046 C.ar      1 <0>        -0.0996
     18 C14        -1.6727   -3.4751    5.2118 C.ar      1 <0>        -0.0914
     19 C15        -4.8187   -1.9400    6.6258 C.3       1 <0>        -0.5507
     20 C16        -4.7083   -2.4725    8.0815 C.3       1 <0>        -0.1433
     21 C17        -5.9821   -3.1876    8.4185 C.2       1 <0>         0.4323
     22 O3         -6.2957   -3.4363    9.7070 O.3       1 <0>        -0.6587
     23 N2         -6.7734   -3.5622    7.4822 N.2       1 <0>        -0.9086
     24 S2         -6.1131   -3.0978    6.0146 S.o2      1 <0>         2.4571
     25 O4         -7.1431   -2.3952    5.3330 O.2       1 <0>        -0.9846
     26 O5         -5.5282   -4.2709    5.4661 O.2       1 <0>        -0.9791
     27 C18        -0.8055   -4.3067    2.2371 C.2       1 <0>         0.1857
     28 N3         -1.9867   -4.5874    1.6457 N.pl3     1 <0>        -0.5511
     29 H1         -2.5616   -3.9590    1.1814 H         1 <0>         0.4187
     30 C19        -2.2210   -5.9242    1.8236 C.2       1 <0>        -0.0345
     31 C20        -1.1756   -6.4141    2.5170 C.2       1 <0>        -0.0306
     32 N4         -0.3235   -5.4050    2.7511 N.2       1 <0>        -0.4696
     33 C21         2.5438    2.5618    0.0589 C.3       1 <0>         0.5105
     34 F1          1.9963    3.8432   -0.0649 F         1 <0>        -0.1745
     35 F2          3.2223    2.4603    1.2782 F         1 <0>        -0.1719
     36 F3          3.4377    2.3330   -0.9926 F         1 <0>        -0.1725
     37 H2         -1.9247    1.3231   -0.0961 H         1 <0>         0.1502
     38 H3         -0.1206    2.9976   -0.0221 H         1 <0>         0.1494
     39 H4          2.7790   -0.1294    0.0350 H         1 <0>         0.1536
     40 H5         -1.3766   -1.0772   -0.1116 H         1 <0>         0.1488
     41 H6          1.9149   -3.3084    1.9450 H         1 <0>         0.4288
     42 H7         -0.8185   -2.2068    1.8566 H         1 <0>         0.0936
     43 H8          0.7362   -3.3778    4.2059 H         1 <0>         0.0981
     44 H9          0.7106   -1.6507    3.7758 H         1 <0>         0.0888
     45 H10        -1.4034   -0.3788    3.9010 H         1 <0>         0.1204
     46 H11        -3.5200   -0.1043    5.1290 H         1 <0>         0.1238
     47 H12        -3.2675   -4.1458    6.4677 H         1 <0>         0.1325
     48 H13        -1.1552   -4.4228    5.2330 H         1 <0>         0.1280
     49 H14        -5.1613   -0.9055    6.6008 H         1 <0>         0.1391
     50 H15        -3.8680   -3.1626    8.1579 H         1 <0>         0.1047
     51 H16        -4.5620   -1.6387    8.7680 H         1 <0>         0.1066
     52 H17        -3.0793   -6.4793    1.4751 H         1 <0>         0.1776
     53 H18        -1.0445   -7.4404    2.8268 H         1 <0>         0.1702
@<TRIPOS>BOND
     1    1    6 ar
     2    1    2 ar
     3    1   37 1
     4    2    3 ar
     5    2   38 1
     6    3    4 ar
     7    3   33 1
     8    4    5 ar
     9    4   39 1
    10    5    6 ar
    11    5    7 1
    12    6   40 1
    13    7    8 2
    14    7    9 2
    15    7   10 1
    16   10   11 1
    17   10   41 1
    18   11   12 1
    19   11   27 1
    20   11   42 1
    21   12   13 1
    22   12   43 1
    23   12   44 1
    24   13   18 ar
    25   13   14 ar
    26   14   15 ar
    27   14   45 1
    28   15   16 ar
    29   15   46 1
    30   16   17 ar
    31   16   19 1
    32   17   18 ar
    33   17   47 1
    34   18   48 1
    35   19   24 1
    36   19   20 1
    37   19   49 1
    38   20   21 1
    39   20   50 1
    40   20   51 1
    41   21   22 1
    42   21   23 2
    43   23   24 1
    44   24   25 2
    45   24   26 2
    46   27   32 2
    47   27   28 1
    48   28   29 1
    49   28   30 1
    50   30   31 2
    51   30   52 1
    52   31   32 1
    53   31   53 1
    54   33   34 1
    55   33   35 1
    56   33   36 1
@<TRIPOS>MOLECULE
CHEMBL254513__1
   53    56     0     0     0
SMALL
USER_CHARGES

@<TRIPOS>ATOM
      1 C1         -0.0167    1.3779    0.0096 C.ar      1 <0>        -0.1313
      2 C2          1.1711    2.0854    0.0021 C.ar      1 <0>        -0.0086
      3 C3          2.3773    1.4107   -0.0130 C.ar      1 <0>        -0.1956
      4 C4          2.3960    0.0283   -0.0201 C.ar      1 <0>         0.0392
      5 C5          1.2086   -0.6790   -0.0117 C.ar      1 <0>        -0.6824
      6 C6          0.0021   -0.0041    0.0020 C.ar      1 <0>         0.0038
      7 S1          1.2325   -2.4408   -0.0219 S.o2      1 <0>         2.6941
      8 O1         -0.0129   -2.8607   -0.5621 O.2       1 <0>        -0.9531
      9 O2          2.4774   -2.8268   -0.5880 O.2       1 <0>        -0.9508
     10 N1          1.2558   -2.9393    1.5571 N.pl3     1 <0>        -1.0951
     11 C7          0.1111   -2.6642    2.4290 C.3       1 <0>         0.2533
     12 C8          0.6070   -2.3875    3.8497 C.3       1 <0>        -0.0702
     13 C9          1.4274   -1.1235    3.8582 C.ar      1 <0>        -0.0968
     14 C10         2.7905   -1.1827    3.6362 C.ar      1 <0>        -0.1121
     15 C11         3.5431   -0.0232    3.6439 C.ar      1 <0>        -0.1082
     16 C12         2.9325    1.1956    3.8731 C.ar      1 <0>        -0.0317
     17 C13         1.5692    1.2550    4.0942 C.ar      1 <0>        -0.1019
     18 C14         0.8160    0.0959    4.0822 C.ar      1 <0>        -0.1054
     19 C15         3.7531    2.4596    3.8825 C.3       1 <0>        -0.5495
     20 C16         3.1340    3.5506    2.9653 C.3       1 <0>        -0.1421
     21 C17         2.2743    4.4424    3.8096 C.2       1 <0>         0.4345
     22 O3          1.3553    5.2411    3.2283 O.3       1 <0>        -0.6589
     23 N2          2.4124    4.4457    5.0840 N.2       1 <0>        -0.9078
     24 S2          3.6111    3.3481    5.4887 S.o2      1 <0>         2.4543
     25 O4          3.0452    2.5088    6.4860 O.2       1 <0>        -0.9708
     26 O5          4.7738    4.1236    5.7454 O.2       1 <0>        -0.9920
     27 C18        -0.8090   -3.8577    2.4417 C.2       1 <0>         0.1883
     28 N3         -2.0708   -3.8839    1.9611 N.pl3     1 <0>        -0.5545
     29 H1         -2.5451   -3.1450    1.5487 H         1 <0>         0.4204
     30 C19        -2.5553   -5.1478    2.1643 C.2       1 <0>        -0.0463
     31 C20        -1.5736   -5.8501    2.7615 C.2       1 <0>        -0.0306
     32 N4         -0.5165   -5.0386    2.9137 N.2       1 <0>        -0.4694
     33 C21         3.6720    2.1819   -0.0222 C.3       1 <0>         0.5039
     34 F1          3.3977    3.5538   -0.0131 F         1 <0>        -0.1676
     35 F2          4.4214    1.8486    1.1111 F         1 <0>        -0.1640
     36 F3          4.3988    1.8593   -1.1733 F         1 <0>        -0.1778
     37 H2         -0.9591    1.9051    0.0259 H         1 <0>         0.1473
     38 H3          1.1565    3.1653    0.0076 H         1 <0>         0.1531
     39 H4          3.3385   -0.4989   -0.0326 H         1 <0>         0.1485
     40 H5         -0.9258   -0.5567    0.0079 H         1 <0>         0.1438
     41 H6          2.0273   -3.4135    1.9047 H         1 <0>         0.4271
     42 H7         -0.4284   -1.7934    2.0565 H         1 <0>         0.0963
     43 H8         -0.2473   -2.2706    4.5165 H         1 <0>         0.0900
     44 H9          1.2212   -3.2216    4.1891 H         1 <0>         0.0965
     45 H10         3.2676   -2.1349    3.4571 H         1 <0>         0.1221
     46 H11         4.6082   -0.0695    3.4712 H         1 <0>         0.1226
     47 H12         1.0922    2.2071    4.2736 H         1 <0>         0.1273
     48 H13        -0.2497    0.1426    4.2513 H         1 <0>         0.1218
     49 H14         4.7932    2.2600    3.6247 H         1 <0>         0.1392
     50 H15         3.9284    4.1362    2.5027 H         1 <0>         0.1029
     51 H16         2.5272    3.0797    2.1919 H         1 <0>         0.0968
     52 H17        -3.5364   -5.5119    1.8972 H         1 <0>         0.1774
     53 H18        -1.6268   -6.8861    3.0619 H         1 <0>         0.1702
@<TRIPOS>BOND
     1    1    6 ar
     2    1    2 ar
     3    1   37 1
     4    2    3 ar
     5    2   38 1
     6    3    4 ar
     7    3   33 1
     8    4    5 ar
     9    4   39 1
    10    5    6 ar
    11    5    7 1
    12    6   40 1
    13    7    8 2
    14    7    9 2
    15    7   10 1
    16   10   11 1
    17   10   41 1
    18   11   12 1
    19   11   27 1
    20   11   42 1
    21   12   13 1
    22   12   43 1
    23   12   44 1
    24   13   18 ar
    25   13   14 ar
    26   14   15 ar
    27   14   45 1
    28   15   16 ar
    29   15   46 1
    30   16   17 ar
    31   16   19 1
    32   17   18 ar
    33   17   47 1
    34   18   48 1
    35   19   24 1
    36   19   20 1
    37   19   49 1
    38   20   21 1
    39   20   50 1
    40   20   51 1
    41   21   22 1
    42   21   23 2
    43   23   24 1
    44   24   25 2
    45   24   26 2
    46   27   32 2
    47   27   28 1
    48   28   29 1
    49   28   30 1
    50   30   31 2
    51   30   52 1
    52   31   32 1
    53   31   53 1
    54   33   34 1
    55   33   35 1
    56   33   36 1
@<TRIPOS>MOLECULE
CHEMBL254513__2
   53    56     0     0     0
SMALL
USER_CHARGES

@<TRIPOS>ATOM
      1 C1         -0.0167    1.3779    0.0096 C.ar      1 <0>        -0.1288
      2 C2          1.1711    2.0854    0.0021 C.ar      1 <0>        -0.0156
      3 C3          2.3773    1.4107   -0.0130 C.ar      1 <0>        -0.2025
      4 C4          2.3960    0.0283   -0.0201 C.ar      1 <0>         0.0162
      5 C5          1.2086   -0.6790   -0.0117 C.ar      1 <0>        -0.6898
      6 C6          0.0021   -0.0041    0.0020 C.ar      1 <0>         0.0193
      7 S1          1.2325   -2.4408   -0.0219 S.o2      1 <0>         2.6823
      8 O1         -0.0129   -2.8607   -0.5621 O.2       1 <0>        -0.9254
      9 O2          2.4774   -2.8268   -0.5880 O.2       1 <0>        -0.9372
     10 N1          1.2558   -2.9393    1.5571 N.pl3     1 <0>        -1.1128
     11 C7          0.1111   -2.6642    2.4290 C.3       1 <0>         0.2418
     12 C8         -0.0775   -3.8271    3.4053 C.3       1 <0>        -0.0661
     13 C9         -0.4493   -5.0706    2.6396 C.ar      1 <0>        -0.0970
     14 C10        -1.7786   -5.3586    2.3925 C.ar      1 <0>        -0.1104
     15 C11        -2.1197   -6.4992    1.6901 C.ar      1 <0>        -0.1079
     16 C12        -1.1316   -7.3517    1.2344 C.ar      1 <0>        -0.0483
     17 C13         0.1977   -7.0633    1.4807 C.ar      1 <0>        -0.1020
     18 C14         0.5391   -5.9204    2.1793 C.ar      1 <0>        -0.1087
     19 C15        -1.5035   -8.5958    0.4695 C.3       1 <0>        -0.5509
     20 C16        -0.8063   -9.8561    1.0529 C.3       1 <0>        -0.1425
     21 C17        -0.3626  -10.7193   -0.0896 C.2       1 <0>         0.4321
     22 O3         -0.0532  -12.0150    0.1242 O.3       1 <0>        -0.6613
     23 N2         -0.2775  -10.2260   -1.2697 N.2       1 <0>        -0.9095
     24 S2         -0.7375   -8.6168   -1.2045 S.o2      1 <0>         2.4574
     25 O4         -1.7220   -8.4555   -2.2164 O.2       1 <0>        -0.9823
     26 O5          0.4708   -7.8691   -1.2203 O.2       1 <0>        -0.9791
     27 C18         0.3619   -1.3951    3.2019 C.2       1 <0>         0.1871
     28 N3          1.4194   -0.5709    3.0401 N.pl3     1 <0>        -0.5584
     29 H1          2.1486   -0.6870    2.4110 H         1 <0>         0.4116
     30 C19         1.2699    0.4590    3.9292 C.2       1 <0>        -0.0506
     31 C20         0.1269    0.2290    4.6033 C.2       1 <0>        -0.0225
     32 N4         -0.4097   -0.9074    4.1346 N.2       1 <0>        -0.4705
     33 C21         3.6720    2.1819   -0.0222 C.3       1 <0>         0.5105
     34 F1          3.3977    3.5538   -0.0131 F         1 <0>        -0.1743
     35 F2          4.4214    1.8486    1.1111 F         1 <0>        -0.1747
     36 F3          4.3988    1.8593   -1.1733 F         1 <0>        -0.1703
     37 H2         -0.9591    1.9051    0.0259 H         1 <0>         0.1484
     38 H3          1.1565    3.1653    0.0076 H         1 <0>         0.1483
     39 H4          3.3385   -0.4989   -0.0326 H         1 <0>         0.1532
     40 H5         -0.9258   -0.5567    0.0079 H         1 <0>         0.1530
     41 H6          2.0273   -3.4135    1.9047 H         1 <0>         0.4258
     42 H7         -0.7877   -2.5491    1.8232 H         1 <0>         0.1229
     43 H8          0.8515   -3.9993    3.9490 H         1 <0>         0.0823
     44 H9         -0.8717   -3.5838    4.1111 H         1 <0>         0.1037
     45 H10        -2.5506   -4.6925    2.7486 H         1 <0>         0.1254
     46 H11        -3.1583   -6.7246    1.4977 H         1 <0>         0.1253
     47 H12         0.9697   -7.7295    1.1249 H         1 <0>         0.1351
     48 H13         1.5778   -5.6931    2.3685 H         1 <0>         0.1212
     49 H14        -2.5849   -8.7220    0.4177 H         1 <0>         0.1402
     50 H15         0.0584   -9.5569    1.6452 H         1 <0>         0.1041
     51 H16        -1.5075  -10.4073    1.6795 H         1 <0>         0.1063
     52 H17         1.9399    1.2952    4.0644 H         1 <0>         0.1746
     53 H18        -0.2869    0.8522    5.3822 H         1 <0>         0.1712
@<TRIPOS>BOND
     1    1    6 ar
     2    1    2 ar
     3    1   37 1
     4    2    3 ar
     5    2   38 1
     6    3    4 ar
     7    3   33 1
     8    4    5 ar
     9    4   39 1
    10    5    6 ar
    11    5    7 1
    12    6   40 1
    13    7    8 2
    14    7    9 2
    15    7   10 1
    16   10   11 1
    17   10   41 1
    18   11   12 1
    19   11   27 1
    20   11   42 1
    21   12   13 1
    22   12   43 1
    23   12   44 1
    24   13   18 ar
    25   13   14 ar
    26   14   15 ar
    27   14   45 1
    28   15   16 ar
    29   15   46 1
    30   16   17 ar
    31   16   19 1
    32   17   18 ar
    33   17   47 1
    34   18   48 1
    35   19   24 1
    36   19   20 1
    37   19   49 1
    38   20   21 1
    39   20   50 1
    40   20   51 1
    41   21   22 1
    42   21   23 2
    43   23   24 1
    44   24   25 2
    45   24   26 2
    46   27   32 2
    47   27   28 1
    48   28   29 1
    49   28   30 1
    50   30   31 2
    51   30   52 1
    52   31   32 1
    53   31   53 1
    54   33   34 1
    55   33   35 1
    56   33   36 1
@<TRIPOS>MOLECULE
CHEMBL254513__3
   53    56     0     0     0
SMALL
USER_CHARGES

@<TRIPOS>ATOM
      1 C1         -0.0167    1.3779    0.0096 C.ar      1 <0>        -0.1291
      2 C2          1.1711    2.0854    0.0021 C.ar      1 <0>        -0.0154
      3 C3          2.3773    1.4107   -0.0130 C.ar      1 <0>        -0.2022
      4 C4          2.3960    0.0283   -0.0201 C.ar      1 <0>         0.0164
      5 C5          1.2086   -0.6790   -0.0117 C.ar      1 <0>        -0.6896
      6 C6          0.0021   -0.0041    0.0020 C.ar      1 <0>         0.0194
      7 S1          1.2325   -2.4408   -0.0219 S.o2      1 <0>         2.6839
      8 O1         -0.0129   -2.8607   -0.5621 O.2       1 <0>        -0.9284
      9 O2          2.4774   -2.8268   -0.5880 O.2       1 <0>        -0.9387
     10 N1          1.2558   -2.9393    1.5571 N.pl3     1 <0>        -1.1125
     11 C7          0.1111   -2.6642    2.4290 C.3       1 <0>         0.2428
     12 C8         -0.0775   -3.8271    3.4053 C.3       1 <0>        -0.0667
     13 C9         -0.4493   -5.0706    2.6396 C.ar      1 <0>        -0.0972
     14 C10        -1.7786   -5.3586    2.3925 C.ar      1 <0>        -0.1091
     15 C11        -2.1197   -6.4992    1.6901 C.ar      1 <0>        -0.1088
     16 C12        -1.1316   -7.3517    1.2344 C.ar      1 <0>        -0.0369
     17 C13         0.1977   -7.0633    1.4807 C.ar      1 <0>        -0.1041
     18 C14         0.5391   -5.9204    2.1793 C.ar      1 <0>        -0.1042
     19 C15        -1.5035   -8.5958    0.4695 C.3       1 <0>        -0.5512
     20 C16        -0.7013   -8.7138   -0.8561 C.3       1 <0>        -0.1464
     21 C17         0.5004   -9.5737   -0.6037 C.2       1 <0>         0.4325
     22 O3          1.5375   -9.5541   -1.4665 O.3       1 <0>        -0.6585
     23 N2          0.5424  -10.3273    0.4324 N.2       1 <0>        -0.9088
     24 S2         -0.8752  -10.1147    1.2987 S.o2      1 <0>         2.4556
     25 O4         -0.4740   -9.8367    2.6332 O.2       1 <0>        -0.9713
     26 O5         -1.6892  -11.2373    0.9883 O.2       1 <0>        -0.9931
     27 C18         0.3619   -1.3951    3.2019 C.2       1 <0>         0.1871
     28 N3          1.4194   -0.5709    3.0401 N.pl3     1 <0>        -0.5587
     29 H1          2.1486   -0.6870    2.4110 H         1 <0>         0.4113
     30 C19         1.2699    0.4590    3.9292 C.2       1 <0>        -0.0509
     31 C20         0.1269    0.2290    4.6033 C.2       1 <0>        -0.0223
     32 N4         -0.4097   -0.9074    4.1346 N.2       1 <0>        -0.4701
     33 C21         3.6720    2.1819   -0.0222 C.3       1 <0>         0.5103
     34 F1          3.3977    3.5538   -0.0131 F         1 <0>        -0.1743
     35 F2          4.4214    1.8486    1.1111 F         1 <0>        -0.1744
     36 F3          4.3988    1.8593   -1.1733 F         1 <0>        -0.1704
     37 H2         -0.9591    1.9051    0.0259 H         1 <0>         0.1483
     38 H3          1.1565    3.1653    0.0076 H         1 <0>         0.1483
     39 H4          3.3385   -0.4989   -0.0326 H         1 <0>         0.1534
     40 H5         -0.9258   -0.5567    0.0079 H         1 <0>         0.1526
     41 H6          2.0273   -3.4135    1.9047 H         1 <0>         0.4265
     42 H7         -0.7877   -2.5491    1.8232 H         1 <0>         0.1225
     43 H8          0.8515   -3.9993    3.9490 H         1 <0>         0.0829
     44 H9         -0.8717   -3.5838    4.1111 H         1 <0>         0.1039
     45 H10        -2.5506   -4.6925    2.7486 H         1 <0>         0.1245
     46 H11        -3.1583   -6.7246    1.4977 H         1 <0>         0.1231
     47 H12         0.9697   -7.7295    1.1249 H         1 <0>         0.1293
     48 H13         1.5778   -5.6931    2.3685 H         1 <0>         0.1209
     49 H14        -2.5782   -8.6488    0.2955 H         1 <0>         0.1384
     50 H15        -1.3255   -9.1704   -1.6242 H         1 <0>         0.1057
     51 H16        -0.3830   -7.7237   -1.1826 H         1 <0>         0.1077
     52 H17         1.9399    1.2952    4.0644 H         1 <0>         0.1745
     53 H18        -0.2869    0.8522    5.3822 H         1 <0>         0.1712
@<TRIPOS>BOND
     1    1    6 ar
     2    1    2 ar
     3    1   37 1
     4    2    3 ar
     5    2   38 1
     6    3    4 ar
     7    3   33 1
     8    4    5 ar
     9    4   39 1
    10    5    6 ar
    11    5    7 1
    12    6   40 1
    13    7    8 2
    14    7    9 2
    15    7   10 1
    16   10   11 1
    17   10   41 1
    18   11   12 1
    19   11   27 1
    20   11   42 1
    21   12   13 1
    22   12   43 1
    23   12   44 1
    24   13   18 ar
    25   13   14 ar
    26   14   15 ar
    27   14   45 1
    28   15   16 ar
    29   15   46 1
    30   16   17 ar
    31   16   19 1
    32   17   18 ar
    33   17   47 1
    34   18   48 1
    35   19   24 1
    36   19   20 1
    37   19   49 1
    38   20   21 1
    39   20   50 1
    40   20   51 1
    41   21   22 1
    42   21   23 2
    43   23   24 1
    44   24   25 2
    45   24   26 2
    46   27   32 2
    47   27   28 1
    48   28   29 1
    49   28   30 1
    50   30   31 2
    51   30   52 1
    52   31   32 1
    53   31   53 1
    54   33   34 1
    55   33   35 1
    56   33   36 1
@<TRIPOS>MOLECULE
CHEMBL184444
   49    51     0     0     0
SMALL
USER_CHARGES

@<TRIPOS>ATOM
      1 C1          0.0243    1.7646    0.0975 C.3       1 <0>         0.0327
      2 O1         -0.0146    0.3361    0.0933 O.3       1 <0>        -0.3405
      3 C2          0.5479   -0.2882   -0.9606 C.2       1 <0>         0.5351
      4 O2          1.0575    0.3628   -1.8515 O.2       1 <0>        -0.4972
      5 C3          0.5451   -1.7573   -1.0324 C.ar      1 <0>        -0.1766
      6 C4         -0.5150   -2.4324   -1.6568 C.ar      1 <0>         0.1881
      7 C5         -0.5070   -3.8161   -1.7190 C.ar      1 <0>        -0.1838
      8 C6          0.5403   -4.5320   -1.1688 C.ar      1 <0>        -0.0371
      9 C7          1.5896   -3.8775   -0.5514 C.ar      1 <0>        -0.2191
     10 C8          1.6050   -2.4937   -0.4822 C.ar      1 <0>         0.1915
     11 O3          2.6387   -1.8536    0.1193 O.3       1 <0>        -0.3042
     12 C9          3.6822   -2.6688    0.6566 C.3       1 <0>         0.0926
     13 C10         4.7355   -1.7899    1.2804 C.2       1 <0>        -0.1640
     14 C11         5.2347   -2.0958    2.4696 C.2       1 <0>        -0.0765
     15 C12         6.2680   -1.2337    3.0815 C.ar      1 <0>        -0.0685
     16 C13         6.7150   -0.0934    2.4106 C.ar      1 <0>        -0.0985
     17 C14         7.6800    0.7129    2.9807 C.ar      1 <0>        -0.1204
     18 C15         8.2094    0.3983    4.2166 C.ar      1 <0>        -0.0828
     19 C16         7.7710   -0.7386    4.8983 C.ar      1 <0>        -0.0222
     20 C17         6.7936   -1.5537    4.3309 C.ar      1 <0>        -0.0661
     21 C18         8.3390   -1.0741    6.2217 C.2       1 <0>         0.0844
     22 C19         7.6325   -1.4187    7.3308 C.2       1 <0>        -0.1946
     23 C20         8.5531   -1.6586    8.3748 C.2       1 <0>         0.0705
     24 N1          9.7618   -1.4633    7.9017 N.2       1 <0>        -0.2830
     25 O4          9.6467   -1.0978    6.5387 O.3       1 <0>        -0.0954
     26 C21         8.2141   -2.0596    9.7601 C.2       1 <0>         0.5556
     27 O5          7.0453   -2.2110   10.0838 O.co2     1 <0>        -0.6522
     28 O6          9.1031   -2.2389   10.5793 O.co2     1 <0>        -0.6571
     29 C22         6.1325   -1.5253    7.4292 C.3       1 <0>         0.1543
     30 O7          5.7379   -2.8849    7.2348 O.3       1 <0>        -0.5602
     31 O8         -1.5437   -1.7325   -2.1970 O.3       1 <0>        -0.4904
     32 H1          1.0612    2.0999    0.0778 H         1 <0>         0.0624
     33 H2         -0.4973    2.1449   -0.7808 H         1 <0>         0.0607
     34 H3         -0.4614    2.1386    0.9988 H         1 <0>         0.1042
     35 H4         -1.3219   -4.3378   -2.1988 H         1 <0>         0.1412
     36 H5          0.5382   -5.6107   -1.2215 H         1 <0>         0.1395
     37 H6          2.4024   -4.4466   -0.1250 H         1 <0>         0.1427
     38 H7          3.2693   -3.3348    1.4143 H         1 <0>         0.0769
     39 H8          4.1291   -3.2603   -0.1425 H         1 <0>         0.0801
     40 H9          5.0836   -0.9107    0.7585 H         1 <0>         0.1260
     41 H10         4.8866   -2.9750    2.9914 H         1 <0>         0.1265
     42 H11         6.3053    0.1581    1.4435 H         1 <0>         0.1279
     43 H12         8.0224    1.5935    2.4575 H         1 <0>         0.1304
     44 H13         8.9645    1.0328    4.6567 H         1 <0>         0.1313
     45 H14         6.4483   -2.4322    4.8557 H         1 <0>         0.1427
     46 H15         5.8083   -1.1902    8.4144 H         1 <0>         0.0787
     47 H16         5.6729   -0.9005    6.6634 H         1 <0>         0.0411
     48 H17         4.7829   -3.0283    7.2849 H         1 <0>         0.3724
     49 H18        -1.4119   -1.4922   -3.1243 H         1 <0>         0.4009
@<TRIPOS>BOND
     1    1    2 1
     2    1   32 1
     3    1   33 1
     4    1   34 1
     5    2    3 1
     6    3    4 2
     7    3    5 1
     8    5   10 ar
     9    5    6 ar
    10    6    7 ar
    11    6   31 1
    12    7    8 ar
    13    7   35 1
    14    8    9 ar
    15    8   36 1
    16    9   10 ar
    17    9   37 1
    18   10   11 1
    19   11   12 1
    20   12   13 1
    21   12   38 1
    22   12   39 1
    23   13   14 2
    24   13   40 1
    25   14   15 1
    26   14   41 1
    27   15   20 ar
    28   15   16 ar
    29   16   17 ar
    30   16   42 1
    31   17   18 ar
    32   17   43 1
    33   18   19 ar
    34   18   44 1
    35   19   20 ar
    36   19   21 1
    37   20   45 1
    38   21   25 1
    39   21   22 2
    40   22   23 1
    41   22   29 1
    42   23   24 2
    43   23   26 1
    44   24   25 1
    45   26   27 2
    46   26   28 1
    47   29   30 1
    48   29   46 1
    49   29   47 1
    50   30   48 1
    51   31   49 1
@<TRIPOS>MOLECULE
CHEMBL564439
   52    53     0     0     0
SMALL
USER_CHARGES

@<TRIPOS>ATOM
      1 C1         -2.3367   -6.7855   -2.3960 C.3       1 <0>        -0.1436
      2 C2         -3.3022   -5.7880   -1.7528 C.3       1 <0>         0.0668
      3 O1         -2.5627   -4.6946   -1.2053 O.3       1 <0>        -0.3662
      4 C3         -3.3746   -3.7004   -0.5773 C.3       1 <0>         0.0335
      5 H1         -4.3494   -3.6669   -1.0638 H         1 <0>         0.0484
      6 C4         -2.6957   -2.3348   -0.7012 C.3       1 <0>        -0.0640
      7 C5         -2.6294   -1.9366   -2.1531 C.ar      1 <0>        -0.0729
      8 C6         -1.5359   -2.2981   -2.9184 C.ar      1 <0>        -0.0827
      9 C7         -1.4721   -1.9347   -4.2493 C.ar      1 <0>        -0.1193
     10 C8         -2.5079   -1.2060   -4.8190 C.ar      1 <0>         0.1236
     11 C9         -3.6049   -0.8449   -4.0478 C.ar      1 <0>        -0.1460
     12 C10        -3.6649   -1.2155   -2.7187 C.ar      1 <0>        -0.1032
     13 N1         -2.4461   -0.8359   -6.1670 N.am      1 <0>        -0.6735
     14 C11        -1.8444   -1.6452   -7.0611 C.2       1 <0>         0.5071
     15 O2         -1.4415   -2.7361   -6.7167 O.2       1 <0>        -0.5168
     16 C12        -1.6723   -1.1947   -8.4888 C.3       1 <0>        -0.1387
     17 C13        -0.9656   -2.2914   -9.2880 C.3       1 <0>        -0.1033
     18 C14        -0.7908   -1.8340  -10.7375 C.3       1 <0>        -0.1205
     19 C15        -0.0841   -2.9307  -11.5367 C.3       1 <0>        -0.1055
     20 C16         0.0906   -2.4733  -12.9863 C.3       1 <0>        -0.0318
     21 H2         -0.8737   -2.1784  -13.3999 H         1 <0>         0.1124
     22 C17         0.6903   -3.6114  -13.8229 C.3       1 <0>        -0.1433
     23 C18         1.5072   -3.1941  -15.0652 C.3       1 <0>        -0.0576
     24 S1          2.6277   -1.8678  -14.4141 S.3       1 <0>        -0.2040
     25 S2          1.2633   -1.0520  -13.0571 S.3       1 <0>        -0.1778
     26 C19        -3.5516   -4.0430    0.8795 C.2       1 <0>         0.4775
     27 O3         -2.9577   -4.9939    1.3586 O.co2     1 <0>        -0.6793
     28 O4         -4.2888   -3.3694    1.5790 O.co2     1 <0>        -0.7007
     29 H3         -2.9007   -7.6195   -2.8136 H         1 <0>         0.0594
     30 H4         -1.7786   -6.2902   -3.1906 H         1 <0>         0.0554
     31 H5         -1.6428   -7.1573   -1.6421 H         1 <0>         0.0622
     32 H6         -3.9960   -5.4161   -2.5067 H         1 <0>         0.0293
     33 H7         -3.8603   -6.2833   -0.9582 H         1 <0>         0.0450
     34 H8         -3.2694   -1.5922   -0.1466 H         1 <0>         0.0877
     35 H9         -1.6864   -2.3926   -0.2938 H         1 <0>         0.0746
     36 H10        -0.7307   -2.8649   -2.4747 H         1 <0>         0.1271
     37 H11        -0.6174   -2.2167   -4.8463 H         1 <0>         0.1282
     38 H12        -4.4119   -0.2778   -4.4879 H         1 <0>         0.1193
     39 H13        -4.5197   -0.9385   -2.1195 H         1 <0>         0.1254
     40 H14        -2.8363    0.0032   -6.4579 H         1 <0>         0.4070
     41 H15        -2.6502   -0.9978   -8.9281 H         1 <0>         0.0939
     42 H16        -1.0733   -0.2843   -8.5129 H         1 <0>         0.0960
     43 H17         0.0124   -2.4882   -8.8487 H         1 <0>         0.0740
     44 H18        -1.5646   -3.2017   -9.2640 H         1 <0>         0.0726
     45 H19        -1.7688   -1.6372  -11.1768 H         1 <0>         0.0655
     46 H20        -0.1918   -0.9236  -10.7616 H         1 <0>         0.0701
     47 H21         0.8938   -3.1275  -11.0974 H         1 <0>         0.0815
     48 H22        -0.6831   -3.8411  -11.5127 H         1 <0>         0.0830
     49 H23         1.3379   -4.2022  -13.1752 H         1 <0>         0.0905
     50 H24        -0.1259   -4.2531  -14.1549 H         1 <0>         0.1040
     51 H25         2.0873   -4.0355  -15.4442 H         1 <0>         0.1272
     52 H26         0.8520   -2.7973  -15.8406 H         1 <0>         0.1022
@<TRIPOS>BOND
     1    1    2 1
     2    1   29 1
     3    1   30 1
     4    1   31 1
     5    2    3 1
     6    2   32 1
     7    2   33 1
     8    3    4 1
     9    4    5 1
    10    4    6 1
    11    4   26 1
    12    6    7 1
    13    6   34 1
    14    6   35 1
    15    7   12 ar
    16    7    8 ar
    17    8    9 ar
    18    8   36 1
    19    9   10 ar
    20    9   37 1
    21   10   11 ar
    22   10   13 1
    23   11   12 ar
    24   11   38 1
    25   12   39 1
    26   13   14 am
    27   13   40 1
    28   14   15 2
    29   14   16 1
    30   16   17 1
    31   16   41 1
    32   16   42 1
    33   17   18 1
    34   17   43 1
    35   17   44 1
    36   18   19 1
    37   18   45 1
    38   18   46 1
    39   19   20 1
    40   19   47 1
    41   19   48 1
    42   20   21 1
    43   20   25 1
    44   20   22 1
    45   22   23 1
    46   22   49 1
    47   22   50 1
    48   23   24 1
    49   23   51 1
    50   23   52 1
    51   24   25 1
    52   26   27 2
    53   26   28 1
@<TRIPOS>MOLECULE
CHEMBL140120
   43    45     0     0     0
SMALL
USER_CHARGES

@<TRIPOS>ATOM
      1 C1         -0.0167    1.3781    0.0096 C.ar      1 <0>        -0.1121
      2 C2          1.1709    2.0855    0.0021 C.ar      1 <0>        -0.1161
      3 C3          2.3773    1.4107   -0.0130 C.ar      1 <0>        -0.1095
      4 C4          2.3960    0.0285   -0.0201 C.ar      1 <0>        -0.0959
      5 C5          1.2084   -0.6789   -0.0117 C.ar      1 <0>        -0.1108
      6 C6          0.0021   -0.0041    0.0020 C.ar      1 <0>        -0.1171
      7 C7          3.7112   -0.7071   -0.0376 C.3       1 <0>        -0.1058
      8 C8          4.1714   -0.9633    1.3989 C.3       1 <0>        -0.0017
      9 N1          5.4533   -1.6804    1.3819 N.4       1 <0>        -0.3838
     10 C9          5.8335   -2.0349    2.7556 C.3       1 <0>        -0.0019
     11 C10         6.9884   -3.0421    2.7411 C.3       1 <0>        -0.0688
     12 C11         8.0908   -2.4761    1.8570 C.2       1 <0>        -0.0076
     13 C12         7.8208   -1.4714    0.9926 C.2       1 <0>        -0.4085
     14 S1          9.3624   -1.1388    0.1959 S.3       1 <0>         0.2898
     15 C13        10.3333   -2.2757    0.9621 C.2       1 <0>         0.0989
     16 C14         9.4706   -2.9214    1.8423 C.2       1 <0>        -0.2784
     17 C15         9.9344   -3.9994    2.7130 C.2       1 <0>         0.5396
     18 O1          9.1511   -4.5487    3.4779 O.co2     1 <0>        -0.6974
     19 O2         11.1064   -4.3537    2.6779 O.co2     1 <0>        -0.6765
     20 N2         11.6798   -2.5144    0.7639 N.am      1 <0>        -0.5862
     21 C16        12.3678   -1.7862   -0.1377 C.2       1 <0>         0.4424
     22 O3         11.8047   -0.9209   -0.7755 O.2       1 <0>        -0.5188
     23 C17        13.8246   -2.0445   -0.3521 C.2       1 <0>         0.5047
     24 O4         14.4476   -1.3851   -1.1685 O.co2     1 <0>        -0.6378
     25 O5         14.3909   -2.9148    0.2894 O.co2     1 <0>        -0.6466
     26 C18         6.4907   -0.8172    0.7877 C.3       1 <0>         0.1242
     27 H1         -0.9591    1.9053    0.0259 H         1 <0>         0.1249
     28 H2          1.1563    3.1654    0.0076 H         1 <0>         0.1264
     29 H3          3.3051    1.9634   -0.0196 H         1 <0>         0.1263
     30 H4          1.2231   -1.7588   -0.0176 H         1 <0>         0.1247
     31 H5         -0.9258   -0.5567    0.0082 H         1 <0>         0.1257
     32 H6          3.5884   -1.6586   -0.5549 H         1 <0>         0.0954
     33 H7          4.4573   -0.1052   -0.5563 H         1 <0>         0.0982
     34 H8          4.2941   -0.0118    1.9163 H         1 <0>         0.1280
     35 H9          3.4252   -1.5652    1.9176 H         1 <0>         0.1279
     36 H10         6.1449   -1.1359    3.2876 H         1 <0>         0.1244
     37 H11         4.9766   -2.4752    3.2653 H         1 <0>         0.1249
     38 H12         7.3650   -3.1860    3.7538 H         1 <0>         0.1370
     39 H13         6.6430   -3.9935    2.3366 H         1 <0>         0.0958
     40 H14        12.1299   -3.2061    1.2737 H         1 <0>         0.4483
     41 H15         6.3013   -0.6963   -0.2789 H         1 <0>         0.1257
     42 H16         6.4816    0.1573    1.2758 H         1 <0>         0.1244
     43 H17         5.3605   -2.5212    0.8320 H         1 <0>         0.4235
@<TRIPOS>BOND
     1    1    6 ar
     2    1    2 ar
     3    1   27 1
     4    2    3 ar
     5    2   28 1
     6    3    4 ar
     7    3   29 1
     8    4    5 ar
     9    4    7 1
    10    5    6 ar
    11    5   30 1
    12    6   31 1
    13    7    8 1
    14    7   32 1
    15    7   33 1
    16    8    9 1
    17    8   34 1
    18    8   35 1
    19    9   26 1
    20    9   10 1
    21    9   43 1
    22   10   11 1
    23   10   36 1
    24   10   37 1
    25   11   12 1
    26   11   38 1
    27   11   39 1
    28   12   16 1
    29   12   13 2
    30   13   14 1
    31   13   26 1
    32   14   15 1
    33   15   16 2
    34   15   20 1
    35   16   17 1
    36   17   18 2
    37   17   19 1
    38   20   21 am
    39   20   40 1
    40   21   22 2
    41   21   23 1
    42   23   24 2
    43   23   25 1
    44   26   41 1
    45   26   42 1
@<TRIPOS>MOLECULE
CHEMBL140120__1
   42    44     0     0     0
SMALL
USER_CHARGES

@<TRIPOS>ATOM
      1 C1         -0.0167    1.3781    0.0096 C.ar      1 <0>        -0.1318
      2 C2          1.1709    2.0855    0.0021 C.ar      1 <0>        -0.1205
      3 C3          2.3773    1.4107   -0.0130 C.ar      1 <0>        -0.1171
      4 C4          2.3960    0.0285   -0.0201 C.ar      1 <0>        -0.0706
      5 C5          1.2084   -0.6789   -0.0117 C.ar      1 <0>        -0.1160
      6 C6          0.0021   -0.0041    0.0020 C.ar      1 <0>        -0.1211
      7 C7          3.7112   -0.7071   -0.0376 C.3       1 <0>        -0.0833
      8 C8          4.1714   -0.9633    1.3989 C.3       1 <0>         0.0652
      9 N1          5.4533   -1.6804    1.3819 N.3       1 <0>        -0.5326
     10 C9          5.8131   -2.1480    2.7278 C.3       1 <0>         0.0588
     11 C10         6.9275   -3.1957    2.6408 C.3       1 <0>        -0.0377
     12 C11         8.0504   -2.6212    1.7887 C.2       1 <0>        -0.0188
     13 C12         7.8239   -1.5587    0.9835 C.2       1 <0>        -0.3087
     14 S1          9.3793   -1.2449    0.2057 S.3       1 <0>         0.2125
     15 C13        10.3014   -2.4621    0.9053 C.2       1 <0>         0.0694
     16 C14         9.4115   -3.1208    1.7476 C.2       1 <0>        -0.2711
     17 C15         9.8294   -4.2647    2.5553 C.2       1 <0>         0.5425
     18 O1          9.0231   -4.8242    3.2882 O.co2     1 <0>        -0.6980
     19 O2         10.9861   -4.6639    2.4994 O.co2     1 <0>        -0.6933
     20 N2         11.6373   -2.7444    0.6929 N.am      1 <0>        -0.5885
     21 C16        12.3561   -1.9952   -0.1665 C.2       1 <0>         0.4370
     22 O3         11.8300   -1.0727   -0.7538 O.2       1 <0>        -0.5269
     23 C17        13.8014   -2.3006   -0.3962 C.2       1 <0>         0.5060
     24 O4         14.4522   -1.6221   -1.1745 O.co2     1 <0>        -0.6501
     25 O5         14.3304   -3.2283    0.1944 O.co2     1 <0>        -0.6555
     26 C18         6.5233   -0.8372    0.8157 C.3       1 <0>         0.1636
     27 H1         -0.9591    1.9053    0.0259 H         1 <0>         0.1164
     28 H2          1.1563    3.1654    0.0076 H         1 <0>         0.1184
     29 H3          3.3051    1.9634   -0.0196 H         1 <0>         0.1219
     30 H4          1.2231   -1.7588   -0.0176 H         1 <0>         0.1231
     31 H5         -0.9258   -0.5567    0.0082 H         1 <0>         0.1183
     32 H6          3.5884   -1.6586   -0.5549 H         1 <0>         0.0832
     33 H7          4.4573   -0.1052   -0.5563 H         1 <0>         0.0756
     34 H8          4.2941   -0.0118    1.9163 H         1 <0>         0.0308
     35 H9          3.4252   -1.5652    1.9176 H         1 <0>         0.0727
     36 H10         6.1572   -1.3030    3.3241 H         1 <0>         0.0312
     37 H11         4.9374   -2.5904    3.2028 H         1 <0>         0.0687
     38 H12         7.3012   -3.4196    3.6399 H         1 <0>         0.0945
     39 H13         6.5429   -4.1049    2.1786 H         1 <0>         0.0748
     40 H14        12.0578   -3.4818    1.1624 H         1 <0>         0.4421
     41 H15         6.3331   -0.6633   -0.2434 H         1 <0>         0.0788
     42 H16         6.5600    0.1152    1.3446 H         1 <0>         0.0365
@<TRIPOS>BOND
     1    1    6 ar
     2    1    2 ar
     3    1   27 1
     4    2    3 ar
     5    2   28 1
     6    3    4 ar
     7    3   29 1
     8    4    5 ar
     9    4    7 1
    10    5    6 ar
    11    5   30 1
    12    6   31 1
    13    7    8 1
    14    7   32 1
    15    7   33 1
    16    8    9 1
    17    8   34 1
    18    8   35 1
    19    9   26 1
    20    9   10 1
    21   10   11 1
    22   10   36 1
    23   10   37 1
    24   11   12 1
    25   11   38 1
    26   11   39 1
    27   12   16 1
    28   12   13 2
    29   13   14 1
    30   13   26 1
    31   14   15 1
    32   15   16 2
    33   15   20 1
    34   16   17 1
    35   17   18 2
    36   17   19 1
    37   20   21 am
    38   20   40 1
    39   21   22 2
    40   21   23 1
    41   23   24 2
    42   23   25 1
    43   26   41 1
    44   26   42 1
@<TRIPOS>MOLECULE
CHEMBL200117
   84    87     0     0     0
SMALL
USER_CHARGES

@<TRIPOS>ATOM
      1 C1         -0.8165   -1.8787    2.6918 C.3       1 <0>        -0.1542
      2 C2         -0.7882   -3.3570    2.2986 C.3       1 <0>        -0.1260
      3 C3          0.0060   -3.5246    1.0017 C.3       1 <0>        -0.1214
      4 C4          0.0343   -5.0030    0.6084 C.3       1 <0>        -0.1210
      5 C5          0.8286   -5.1706   -0.6885 C.3       1 <0>        -0.1209
      6 C6          0.8568   -6.6489   -1.0818 C.3       1 <0>        -0.1204
      7 C7          1.6511   -6.8165   -2.3787 C.3       1 <0>        -0.1208
      8 C8          1.6794   -8.2948   -2.7720 C.3       1 <0>        -0.1203
      9 C9          2.4736   -8.4624   -4.0689 C.3       1 <0>        -0.1209
     10 C10         2.5019   -9.9408   -4.4622 C.3       1 <0>        -0.1201
     11 C11         3.2962  -10.1084   -5.7591 C.3       1 <0>        -0.1207
     12 C12         3.3245  -11.5867   -6.1523 C.3       1 <0>        -0.1200
     13 C13         4.1187  -11.7543   -7.4492 C.3       1 <0>        -0.1139
     14 C14         4.1470  -13.2326   -7.8425 C.3       1 <0>        -0.0869
     15 C15         4.9293  -13.3977   -9.1199 C.ar      1 <0>        -0.0477
     16 C16         4.2812  -13.3177  -10.3398 C.ar      1 <0>        -0.1313
     17 C17         4.9914  -13.4679  -11.5128 C.ar      1 <0>        -0.0577
     18 C18         6.3669  -13.7011  -11.4673 C.ar      1 <0>        -0.1694
     19 C19         7.0146  -13.7807  -10.2333 C.ar      1 <0>        -0.0648
     20 C20         6.2936  -13.6231   -9.0679 C.ar      1 <0>        -0.1307
     21 C21         7.1347  -13.8636  -12.7211 C.2       1 <0>         0.4602
     22 O1          6.5558  -13.8759  -13.7922 O.2       1 <0>        -0.4437
     23 C22         8.5894  -14.0097  -12.6742 C.2       1 <0>        -0.1568
     24 C23         9.3294  -15.1197  -13.0931 C.2       1 <0>        -0.0819
     25 C24        10.6763  -14.8958  -12.8967 C.2       1 <0>        -0.1039
     26 C25        10.8771  -13.6398  -12.3451 C.2       1 <0>        -0.1365
     27 C26        12.0522  -12.8649  -11.9263 C.2       1 <0>         0.2543
     28 N1         11.8684  -11.6663  -11.4280 N.2       1 <0>        -0.2977
     29 O2         10.5816  -11.1079  -11.2857 O.3       1 <0>        -0.0874
     30 C27         9.4726  -11.7542  -11.6447 C.2       1 <0>         0.1829
     31 C28         9.5512  -13.0183  -12.1853 C.2       1 <0>        -0.2055
     32 C29        13.4168  -13.4262  -12.0634 C.ar      1 <0>        -0.1307
     33 C30        13.6881  -14.3693  -13.0544 C.ar      1 <0>        -0.0384
     34 C31        14.9585  -14.8895  -13.1794 C.ar      1 <0>        -0.1645
     35 C32        15.9676  -14.4758  -12.3195 C.ar      1 <0>         0.1742
     36 C33        15.7006  -13.5368  -11.3317 C.ar      1 <0>        -0.2244
     37 C34        14.4339  -13.0082  -11.2055 C.ar      1 <0>        -0.0259
     38 O3         17.2181  -14.9909  -12.4447 O.3       1 <0>        -0.2729
     39 C35        18.2080  -14.5213  -11.5273 C.3       1 <0>        -0.0114
     40 C36        19.5226  -15.1989  -11.8165 C.2       1 <0>         0.5012
     41 O4         19.6042  -16.0089  -12.7240 O.co2     1 <0>        -0.6694
     42 O5         20.5045  -14.9371  -11.1428 O.co2     1 <0>        -0.6845
     43 H1          0.2029   -1.5230    2.8415 H         1 <0>         0.0534
     44 H2         -1.2902   -1.3006    1.8984 H         1 <0>         0.0532
     45 H3         -1.3824   -1.7593    3.6158 H         1 <0>         0.0531
     46 H4         -0.3145   -3.9351    3.0920 H         1 <0>         0.0603
     47 H5         -1.8076   -3.7127    2.1489 H         1 <0>         0.0600
     48 H6         -0.4677   -2.9466    0.2082 H         1 <0>         0.0605
     49 H7          1.0254   -3.1689    1.1513 H         1 <0>         0.0607
     50 H8          0.5080   -5.5810    1.4018 H         1 <0>         0.0605
     51 H9         -0.9851   -5.3587    0.4587 H         1 <0>         0.0602
     52 H10         0.3549   -4.5925   -1.4820 H         1 <0>         0.0603
     53 H11         1.8480   -4.8148   -0.5388 H         1 <0>         0.0607
     54 H12         1.3305   -7.2269   -0.2883 H         1 <0>         0.0604
     55 H13        -0.1625   -7.0046   -1.2315 H         1 <0>         0.0600
     56 H14         1.1774   -6.2385   -3.1722 H         1 <0>         0.0602
     57 H15         2.6705   -6.4608   -2.2290 H         1 <0>         0.0607
     58 H16         2.1531   -8.8729   -1.9785 H         1 <0>         0.0604
     59 H17         0.6600   -8.6505   -2.9217 H         1 <0>         0.0599
     60 H18         1.9999   -7.8844   -4.8623 H         1 <0>         0.0603
     61 H19         3.4930   -8.1067   -3.9192 H         1 <0>         0.0608
     62 H20         2.9756  -10.5188   -3.6687 H         1 <0>         0.0607
     63 H21         1.4825  -10.2965   -4.6119 H         1 <0>         0.0601
     64 H22         2.8225   -9.5303   -6.5525 H         1 <0>         0.0609
     65 H23         4.3156   -9.7527   -5.6094 H         1 <0>         0.0615
     66 H24         3.7982  -12.1648   -5.3589 H         1 <0>         0.0624
     67 H25         2.3051  -11.9424   -6.3020 H         1 <0>         0.0618
     68 H26         3.6450  -11.1763   -8.2427 H         1 <0>         0.0642
     69 H27         5.1381  -11.3986   -7.2996 H         1 <0>         0.0648
     70 H28         4.6207  -13.8107   -7.0491 H         1 <0>         0.0756
     71 H29         3.1276  -13.5884   -7.9922 H         1 <0>         0.0751
     72 H30         3.2168  -13.1375  -10.3736 H         1 <0>         0.1281
     73 H31         4.4843  -13.4055  -12.4643 H         1 <0>         0.1338
     74 H32         8.0786  -13.9613  -10.1913 H         1 <0>         0.1319
     75 H33         6.7943  -13.6798   -8.1127 H         1 <0>         0.1282
     76 H34         8.9073  -16.0223  -13.5096 H         1 <0>         0.1404
     77 H35        11.4609  -15.5978  -13.1373 H         1 <0>         0.1441
     78 H36         8.5095  -11.2830  -11.5155 H         1 <0>         0.1982
     79 H37        12.9037  -14.6919  -13.7230 H         1 <0>         0.1374
     80 H38        15.1692  -15.6199  -13.9466 H         1 <0>         0.1413
     81 H39        16.4874  -13.2173  -10.6643 H         1 <0>         0.1377
     82 H40        14.2279  -12.2747  -10.4399 H         1 <0>         0.1305
     83 H41        18.3230  -13.4430  -11.6375 H         1 <0>         0.0639
     84 H42        17.8971  -14.7513  -10.5082 H         1 <0>         0.0639
@<TRIPOS>BOND
     1    1    2 1
     2    1   43 1
     3    1   44 1
     4    1   45 1
     5    2    3 1
     6    2   46 1
     7    2   47 1
     8    3    4 1
     9    3   48 1
    10    3   49 1
    11    4    5 1
    12    4   50 1
    13    4   51 1
    14    5    6 1
    15    5   52 1
    16    5   53 1
    17    6    7 1
    18    6   54 1
    19    6   55 1
    20    7    8 1
    21    7   56 1
    22    7   57 1
    23    8    9 1
    24    8   58 1
    25    8   59 1
    26    9   10 1
    27    9   60 1
    28    9   61 1
    29   10   11 1
    30   10   62 1
    31   10   63 1
    32   11   12 1
    33   11   64 1
    34   11   65 1
    35   12   13 1
    36   12   66 1
    37   12   67 1
    38   13   14 1
    39   13   68 1
    40   13   69 1
    41   14   15 1
    42   14   70 1
    43   14   71 1
    44   15   20 ar
    45   15   16 ar
    46   16   17 ar
    47   16   72 1
    48   17   18 ar
    49   17   73 1
    50   18   19 ar
    51   18   21 1
    52   19   20 ar
    53   19   74 1
    54   20   75 1
    55   21   22 2
    56   21   23 1
    57   23   31 1
    58   23   24 2
    59   24   25 1
    60   24   76 1
    61   25   26 2
    62   25   77 1
    63   26   31 1
    64   26   27 1
    65   27   28 2
    66   27   32 1
    67   28   29 1
    68   29   30 1
    69   30   31 2
    70   30   78 1
    71   32   37 ar
    72   32   33 ar
    73   33   34 ar
    74   33   79 1
    75   34   35 ar
    76   34   80 1
    77   35   36 ar
    78   35   38 1
    79   36   37 ar
    80   36   81 1
    81   37   82 1
    82   38   39 1
    83   39   40 1
    84   39   83 1
    85   39   84 1
    86   40   41 2
    87   40   42 1
@<TRIPOS>MOLECULE
CHEMBL25584
   60    64     0     0     0
SMALL
USER_CHARGES

@<TRIPOS>ATOM
      1 C1          7.3606   -2.1637   -2.4023 C.ar      1 <0>        -0.1192
      2 C2          6.2751   -3.0017   -2.2287 C.ar      1 <0>        -0.1176
      3 C3          5.1844   -2.5767   -1.4934 C.ar      1 <0>        -0.1029
      4 C4          5.1794   -1.3139   -0.9313 C.ar      1 <0>        -0.0822
      5 C5          6.2654   -0.4761   -1.1041 C.ar      1 <0>        -0.1104
      6 C6          7.3555   -0.9006   -1.8406 C.ar      1 <0>        -0.1198
      7 C7          3.9900   -0.8502   -0.1305 C.3       1 <0>        -0.0020
      8 C8          4.2279   -1.1310    1.3308 C.2       1 <0>        -0.0998
      9 C9          3.8313   -2.2052    2.0534 C.2       1 <0>        -0.0669
     10 C10         4.1785   -2.2677    3.4728 C.ar      1 <0>        -0.0715
     11 C11         3.8741   -3.2791    4.4117 C.ar      1 <0>        -0.0720
     12 C12         4.2800   -3.1727    5.7054 C.ar      1 <0>        -0.1214
     13 C13         5.0031   -2.0743    6.1501 C.ar      1 <0>        -0.0966
     14 C14         5.3202   -1.0652    5.2628 C.ar      1 <0>        -0.0791
     15 C15         4.9139   -1.1633    3.9484 C.ar      1 <0>        -0.1140
     16 S1          5.1051   -0.1319    2.5177 S.3       1 <0>         0.0342
     17 C16         3.0589   -3.2974    1.4178 C.ar      1 <0>        -0.0362
     18 C17         1.7615   -3.0609    0.9614 C.ar      1 <0>        -0.1003
     19 C18         1.0436   -4.0768    0.3705 C.ar      1 <0>        -0.1123
     20 C19         1.6131   -5.3421    0.2284 C.ar      1 <0>        -0.0227
     21 C20         2.9097   -5.5791    0.6848 C.ar      1 <0>        -0.1131
     22 C21         3.6306   -4.5620    1.2698 C.ar      1 <0>        -0.0948
     23 C22         0.8396   -6.4358   -0.4075 C.ar      1 <0>        -0.0949
     24 C23        -0.4547   -6.1992   -0.8691 C.ar      1 <0>        -0.0500
     25 C24        -1.1715   -7.2180   -1.4605 C.ar      1 <0>        -0.2041
     26 C25        -0.6063   -8.4787   -1.5964 C.ar      1 <0>         0.1732
     27 C26         0.6827   -8.7180   -1.1378 C.ar      1 <0>        -0.1299
     28 C27         1.4072   -7.7010   -0.5503 C.ar      1 <0>        -0.0404
     29 Br1         1.4482  -10.4370   -1.3253 Br        1 <0>        -0.0333
     30 O1         -1.3158   -9.4807   -2.1789 O.3       1 <0>        -0.2942
     31 C28        -2.6355   -9.1655   -2.6274 C.3       1 <0>         0.0551
     32 C29        -3.2729  -10.4089   -3.2507 C.3       1 <0>        -0.0914
     33 C30        -4.6858  -10.0713   -3.7309 C.3       1 <0>        -0.1803
     34 C31        -5.3137  -11.2960   -4.3449 C.2       1 <0>         0.4911
     35 O2         -4.6890  -12.3419   -4.3939 O.co2     1 <0>        -0.6945
     36 O3         -6.4464  -11.2410   -4.7927 O.co2     1 <0>        -0.7044
     37 H1          8.2147   -2.4974   -2.9730 H         1 <0>         0.1210
     38 H2          6.2790   -3.9884   -2.6679 H         1 <0>         0.1227
     39 H3          4.3360   -3.2312   -1.3584 H         1 <0>         0.1224
     40 H4          6.2614    0.5107   -0.6652 H         1 <0>         0.1197
     41 H5          8.2037   -0.2459   -1.9759 H         1 <0>         0.1215
     42 H6          3.8489    0.2208   -0.2765 H         1 <0>         0.0919
     43 H7          3.0987   -1.3826   -0.4624 H         1 <0>         0.1001
     44 H8          3.3122   -4.1466    4.0983 H         1 <0>         0.1251
     45 H9          4.0338   -3.9601    6.4024 H         1 <0>         0.1275
     46 H10         5.3150   -2.0095    7.1821 H         1 <0>         0.1338
     47 H11         5.8820   -0.2050    5.5956 H         1 <0>         0.1305
     48 H12         1.3203   -2.0813    1.0721 H         1 <0>         0.1240
     49 H13         0.0396   -3.8938    0.0173 H         1 <0>         0.1281
     50 H14         3.3499   -6.5592    0.5752 H         1 <0>         0.1271
     51 H15         4.6364   -4.7441    1.6185 H         1 <0>         0.1221
     52 H16        -0.8955   -5.2190   -0.7631 H         1 <0>         0.1332
     53 H17        -2.1741   -7.0351   -1.8181 H         1 <0>         0.1414
     54 H18         2.4110   -7.8863   -0.1975 H         1 <0>         0.1388
     55 H19        -3.2373   -8.8341   -1.7812 H         1 <0>         0.0615
     56 H20        -2.5861   -8.3706   -3.3716 H         1 <0>         0.0616
     57 H21        -2.6711  -10.7403   -4.0969 H         1 <0>         0.0731
     58 H22        -3.3223  -11.2037   -2.5065 H         1 <0>         0.0731
     59 H23        -5.2877   -9.7399   -2.8847 H         1 <0>         0.0592
     60 H24        -4.6365   -9.2765   -4.4751 H         1 <0>         0.0592
@<TRIPOS>BOND
     1    1    6 ar
     2    1    2 ar
     3    1   37 1
     4    2    3 ar
     5    2   38 1
     6    3    4 ar
     7    3   39 1
     8    4    5 ar
     9    4    7 1
    10    5    6 ar
    11    5   40 1
    12    6   41 1
    13    7    8 1
    14    7   42 1
    15    7   43 1
    16    8   16 1
    17    8    9 2
    18    9   10 1
    19    9   17 1
    20   10   15 ar
    21   10   11 ar
    22   11   12 ar
    23   11   44 1
    24   12   13 ar
    25   12   45 1
    26   13   14 ar
    27   13   46 1
    28   14   15 ar
    29   14   47 1
    30   15   16 1
    31   17   22 ar
    32   17   18 ar
    33   18   19 ar
    34   18   48 1
    35   19   20 ar
    36   19   49 1
    37   20   21 ar
    38   20   23 1
    39   21   22 ar
    40   21   50 1
    41   22   51 1
    42   23   28 ar
    43   23   24 ar
    44   24   25 ar
    45   24   52 1
    46   25   26 ar
    47   25   53 1
    48   26   27 ar
    49   26   30 1
    50   27   28 ar
    51   27   29 1
    52   28   54 1
    53   30   31 1
    54   31   32 1
    55   31   55 1
    56   31   56 1
    57   32   33 1
    58   32   57 1
    59   32   58 1
    60   33   34 1
    61   33   59 1
    62   33   60 1
    63   34   35 2
    64   34   36 1
@<TRIPOS>MOLECULE
CHEMBL1078307
   78    79     0     0     0
SMALL
USER_CHARGES

@<TRIPOS>ATOM
      1 C1         -0.2388    1.0807    0.6329 C.3       1 <0>        -0.1538
      2 C2         -0.2088   -0.4470    0.5559 C.3       1 <0>        -0.1260
      3 C3          0.5290   -0.8794   -0.7127 C.3       1 <0>        -0.1214
      4 C4          0.5590   -2.4072   -0.7897 C.3       1 <0>        -0.1209
      5 C5          1.2969   -2.8396   -2.0583 C.3       1 <0>        -0.1208
      6 C6          1.3268   -4.3673   -2.1353 C.3       1 <0>        -0.1203
      7 C7          2.0647   -4.7997   -3.4040 C.3       1 <0>        -0.1208
      8 C8          2.0946   -6.3275   -3.4809 C.3       1 <0>        -0.1200
      9 C9          2.8325   -6.7599   -4.7496 C.3       1 <0>        -0.1208
     10 C10         2.8625   -8.2876   -4.8265 C.3       1 <0>        -0.1192
     11 C11         3.6003   -8.7200   -6.0952 C.3       1 <0>        -0.1212
     12 C12         3.6303  -10.2478   -6.1721 C.3       1 <0>        -0.1182
     13 C13         4.3681  -10.6801   -7.4408 C.3       1 <0>        -0.1214
     14 C14         4.3981  -12.2079   -7.5177 C.3       1 <0>        -0.1175
     15 C15         5.1360  -12.6403   -8.7864 C.3       1 <0>        -0.0959
     16 C16         5.1655  -14.1451   -8.8622 C.ar      1 <0>        -0.0029
     17 C17         6.2529  -14.8371   -8.3821 C.ar      1 <0>        -0.1533
     18 C18         6.2850  -16.2268   -8.4492 C.ar      1 <0>         0.1480
     19 C19         5.2210  -16.9254   -9.0012 C.ar      1 <0>        -0.1788
     20 C20         4.1212  -16.2411   -9.4883 C.ar      1 <0>         0.1711
     21 C21         4.0844  -14.8394   -9.4157 C.ar      1 <0>        -0.1375
     22 C22         2.9167  -14.1035   -9.9254 C.2       1 <0>         0.5131
     23 O1          2.8845  -13.7432  -11.0858 O.2       1 <0>        -0.4655
     24 O2          1.8823  -13.8288   -9.1052 O.3       1 <0>        -0.2860
     25 C23         0.8667  -13.0715   -9.5921 C.ar      1 <0>         0.0699
     26 C24        -0.0730  -13.6401  -10.4478 C.ar      1 <0>        -0.1266
     27 C25        -1.0987  -12.8889  -10.9440 C.ar      1 <0>        -0.0471
     28 C26        -1.2121  -11.5378  -10.5942 C.ar      1 <0>        -0.1184
     29 C27        -0.2661  -10.9608   -9.7307 C.ar      1 <0>         0.1290
     30 C28         0.7666  -11.7362   -9.2305 C.ar      1 <0>        -0.1493
     31 O3         -0.3662   -9.6533   -9.3853 O.3       1 <0>        -0.4836
     32 C29        -2.3151  -10.7274  -11.1281 C.2       1 <0>         0.5349
     33 O4         -3.4013  -10.7251  -10.5644 O.co2     1 <0>        -0.6851
     34 O5         -2.1476  -10.0546  -12.1365 O.co2     1 <0>        -0.6750
     35 C30        -2.1101  -13.5142  -11.8698 C.3       1 <0>        -0.1095
     36 O6          3.0801  -16.9223  -10.0287 O.3       1 <0>        -0.4882
     37 O7          7.3618  -16.9015   -7.9731 O.3       1 <0>        -0.4936
     38 H1          0.7815    1.4634    0.6577 H         1 <0>         0.0527
     39 H2         -0.7548    1.4785   -0.2410 H         1 <0>         0.0535
     40 H3         -0.7645    1.3888    1.5367 H         1 <0>         0.0525
     41 H4          0.3072   -0.8448    1.4298 H         1 <0>         0.0596
     42 H5         -1.2292   -0.8297    0.5311 H         1 <0>         0.0606
     43 H6          0.0130   -0.4817   -1.5866 H         1 <0>         0.0611
     44 H7          1.5494   -0.4968   -0.6879 H         1 <0>         0.0599
     45 H8          1.0750   -2.8049    0.0842 H         1 <0>         0.0596
     46 H9         -0.4613   -2.7898   -0.8145 H         1 <0>         0.0610
     47 H10         0.7808   -2.4418   -2.9322 H         1 <0>         0.0613
     48 H11         2.3172   -2.4569   -2.0335 H         1 <0>         0.0595
     49 H12         1.8428   -4.7651   -1.2614 H         1 <0>         0.0590
     50 H13         0.3065   -4.7500   -2.1601 H         1 <0>         0.0612
     51 H14         1.5487   -4.4020   -4.2778 H         1 <0>         0.0618
     52 H15         3.0850   -4.4171   -3.3791 H         1 <0>         0.0590
     53 H16         2.6107   -6.7252   -2.6071 H         1 <0>         0.0583
     54 H17         1.0743   -6.7101   -3.5057 H         1 <0>         0.0616
     55 H18         2.3165   -6.3621   -5.6234 H         1 <0>         0.0629
     56 H19         3.8528   -6.3772   -4.7247 H         1 <0>         0.0583
     57 H20         3.3785   -8.6854   -3.9527 H         1 <0>         0.0577
     58 H21         1.8421   -8.6703   -4.8514 H         1 <0>         0.0623
     59 H22         3.0843   -8.3223   -6.9690 H         1 <0>         0.0649
     60 H23         4.6207   -8.3374   -6.0703 H         1 <0>         0.0583
     61 H24         4.1463  -10.6455   -5.2983 H         1 <0>         0.0590
     62 H25         2.6100  -10.6304   -6.1970 H         1 <0>         0.0636
     63 H26         3.8521  -10.2824   -8.3147 H         1 <0>         0.0657
     64 H27         5.3885  -10.2975   -7.4160 H         1 <0>         0.0620
     65 H28         4.9141  -12.6057   -6.6439 H         1 <0>         0.0665
     66 H29         3.3778  -12.5905   -7.5426 H         1 <0>         0.0727
     67 H30         4.6199  -12.2425   -9.6603 H         1 <0>         0.0792
     68 H31         6.1563  -12.2577   -8.7616 H         1 <0>         0.0855
     69 H32         7.0852  -14.3000   -7.9516 H         1 <0>         0.1416
     70 H33         5.2512  -18.0038   -9.0511 H         1 <0>         0.1448
     71 H34         0.0105  -14.6817  -10.7207 H         1 <0>         0.1230
     72 H35         1.4954  -11.3007   -8.5630 H         1 <0>         0.1299
     73 H36        -0.8940   -9.4957   -8.5905 H         1 <0>         0.3858
     74 H37        -2.9795  -13.8342  -11.2953 H         1 <0>         0.0731
     75 H38        -2.4179  -12.7839  -12.6182 H         1 <0>         0.0763
     76 H39        -1.6646  -14.3767  -12.3655 H         1 <0>         0.0606
     77 H40         2.3965  -17.1674   -9.3902 H         1 <0>         0.4002
     78 H41         7.2927  -17.1443   -7.0396 H         1 <0>         0.3961
@<TRIPOS>BOND
     1    1    2 1
     2    1   38 1
     3    1   39 1
     4    1   40 1
     5    2    3 1
     6    2   41 1
     7    2   42 1
     8    3    4 1
     9    3   43 1
    10    3   44 1
    11    4    5 1
    12    4   45 1
    13    4   46 1
    14    5    6 1
    15    5   47 1
    16    5   48 1
    17    6    7 1
    18    6   49 1
    19    6   50 1
    20    7    8 1
    21    7   51 1
    22    7   52 1
    23    8    9 1
    24    8   53 1
    25    8   54 1
    26    9   10 1
    27    9   55 1
    28    9   56 1
    29   10   11 1
    30   10   57 1
    31   10   58 1
    32   11   12 1
    33   11   59 1
    34   11   60 1
    35   12   13 1
    36   12   61 1
    37   12   62 1
    38   13   14 1
    39   13   63 1
    40   13   64 1
    41   14   15 1
    42   14   65 1
    43   14   66 1
    44   15   16 1
    45   15   67 1
    46   15   68 1
    47   16   21 ar
    48   16   17 ar
    49   17   18 ar
    50   17   69 1
    51   18   19 ar
    52   18   37 1
    53   19   20 ar
    54   19   70 1
    55   20   21 ar
    56   20   36 1
    57   21   22 1
    58   22   23 2
    59   22   24 1
    60   24   25 1
    61   25   30 ar
    62   25   26 ar
    63   26   27 ar
    64   26   71 1
    65   27   28 ar
    66   27   35 1
    67   28   29 ar
    68   28   32 1
    69   29   30 ar
    70   29   31 1
    71   30   72 1
    72   31   73 1
    73   32   33 2
    74   32   34 1
    75   35   74 1
    76   35   75 1
    77   35   76 1
    78   36   77 1
    79   37   78 1
@<TRIPOS>MOLECULE
CHEMBL230543
   60    63     0     0     0
SMALL
USER_CHARGES

@<TRIPOS>ATOM
      1 C1          1.5777    1.8736    2.4406 C.ar      1 <0>        -0.1437
      2 C2          2.8154    2.4877    2.3835 C.ar      1 <0>        -0.1012
      3 C3          3.9270    1.7691    1.9892 C.ar      1 <0>        -0.1555
      4 C4          3.8008    0.4285    1.6498 C.ar      1 <0>         0.1651
      5 C5          2.5565   -0.1854    1.7082 C.ar      1 <0>        -0.1339
      6 C6          1.4488    0.5388    2.1033 C.ar      1 <0>        -0.1002
      7 N1          4.9251   -0.3024    1.2494 N.am      1 <0>        -0.6863
      8 C7          4.9713   -1.6337    1.4538 C.2       1 <0>         0.7079
      9 O1          3.9784   -2.2257    1.8308 O.2       1 <0>        -0.5678
     10 N2          6.1180   -2.3089    1.2404 N.am      1 <0>        -0.6228
     11 C8          7.3643   -1.5913    0.9397 C.3       1 <0>         0.1127
     12 C9          7.9575   -2.1547   -0.3555 C.3       1 <0>        -0.1291
     13 C10         8.1219   -3.6701   -0.2197 C.3       1 <0>        -0.0855
     14 C11         6.7525   -4.3154    0.0051 C.3       1 <0>        -0.1309
     15 C12         6.1468   -3.7762    1.3099 C.3       1 <0>         0.1277
     16 C13         8.7462   -4.2318   -1.4986 C.3       1 <0>         0.0658
     17 O2          9.0071   -5.6265   -1.3286 O.3       1 <0>        -0.3102
     18 C14         9.5657   -6.2823   -2.3798 C.ar      1 <0>         0.1283
     19 C15         9.8616   -5.5941   -3.5491 C.ar      1 <0>        -0.2094
     20 C16        10.4303   -6.2558   -4.6215 C.ar      1 <0>        -0.0819
     21 C17        10.7073   -7.6051   -4.5372 C.ar      1 <0>        -0.1329
     22 C18        10.4133   -8.3053   -3.3658 C.ar      1 <0>         0.0557
     23 C19         9.8446   -7.6348   -2.2822 C.ar      1 <0>        -0.1176
     24 C20        10.7081   -9.7504   -3.2719 C.2       1 <0>        -0.1458
     25 C21         9.8452  -10.7954   -2.9881 C.2       1 <0>        -0.1071
     26 C22        10.3438  -12.0724   -2.9528 C.2       1 <0>         0.0977
     27 C23        11.7043  -12.2603   -3.2059 C.2       1 <0>        -0.1367
     28 S1         12.2650  -10.5919   -3.5032 S.3       1 <0>         0.1426
     29 C24        12.4437  -13.4599   -3.2267 C.2       1 <0>         0.4864
     30 O3         11.8370  -14.6209   -2.9816 O.co2     1 <0>        -0.6337
     31 O4         13.7495  -13.4333   -3.4916 O.co2     1 <0>        -0.7101
     32 O5          9.5352  -13.1274   -2.6783 O.3       1 <0>        -0.2660
     33 C25         8.8991  -13.7634   -3.7887 C.3       1 <0>         0.0201
     34 C26         8.0478  -14.9043   -3.2941 C.2       1 <0>         0.5130
     35 O6          7.9910  -15.1500   -2.1012 O.co2     1 <0>        -0.6720
     36 O7          7.4158  -15.5816   -4.0867 O.co2     1 <0>        -0.7085
     37 Br1         8.0130  -10.4676   -2.6545 Br        1 <0>        -0.0334
     38 H1          0.7108    2.4365    2.7536 H         1 <0>         0.1201
     39 H2          2.9128    3.5305    2.6472 H         1 <0>         0.1234
     40 H3          4.8933    2.2494    1.9444 H         1 <0>         0.1221
     41 H4          2.4551   -1.2278    1.4446 H         1 <0>         0.1567
     42 H5          0.4808    0.0620    2.1489 H         1 <0>         0.1241
     43 H6          5.6711    0.1493    0.8248 H         1 <0>         0.4057
     44 H7          7.1532   -0.5294    0.8133 H         1 <0>         0.0759
     45 H8          8.0723   -1.7305    1.7567 H         1 <0>         0.0775
     46 H9          7.2890   -1.9344   -1.1878 H         1 <0>         0.0719
     47 H10         8.9302   -1.6982   -0.5389 H         1 <0>         0.0817
     48 H11         8.7707   -3.8905    0.6280 H         1 <0>         0.0873
     49 H12         6.0953   -4.0748   -0.8305 H         1 <0>         0.0678
     50 H13         6.8675   -5.3968    0.0784 H         1 <0>         0.0921
     51 H14         6.7576   -4.0900    2.1565 H         1 <0>         0.0726
     52 H15         5.1322   -4.1565    1.4279 H         1 <0>         0.0974
     53 H16         8.0578   -4.0898   -2.3317 H         1 <0>         0.0608
     54 H17         9.6804   -3.7101   -1.7064 H         1 <0>         0.0615
     55 H18         9.6464   -4.5382   -3.6212 H         1 <0>         0.1228
     56 H19        10.6582   -5.7151   -5.5283 H         1 <0>         0.1254
     57 H20        11.1509   -8.1191   -5.3771 H         1 <0>         0.1292
     58 H21         9.6187   -8.1702   -1.3719 H         1 <0>         0.1361
     59 H22         8.2712  -13.0411   -4.3104 H         1 <0>         0.0354
     60 H23         9.6576  -14.1457   -4.4719 H         1 <0>         0.0515
@<TRIPOS>BOND
     1    1    6 ar
     2    1    2 ar
     3    1   38 1
     4    2    3 ar
     5    2   39 1
     6    3    4 ar
     7    3   40 1
     8    4    5 ar
     9    4    7 1
    10    5    6 ar
    11    5   41 1
    12    6   42 1
    13    7    8 am
    14    7   43 1
    15    8    9 2
    16    8   10 am
    17   10   15 1
    18   10   11 1
    19   11   12 1
    20   11   44 1
    21   11   45 1
    22   12   13 1
    23   12   46 1
    24   12   47 1
    25   13   14 1
    26   13   16 1
    27   13   48 1
    28   14   15 1
    29   14   49 1
    30   14   50 1
    31   15   51 1
    32   15   52 1
    33   16   17 1
    34   16   53 1
    35   16   54 1
    36   17   18 1
    37   18   23 ar
    38   18   19 ar
    39   19   20 ar
    40   19   55 1
    41   20   21 ar
    42   20   56 1
    43   21   22 ar
    44   21   57 1
    45   22   23 ar
    46   22   24 1
    47   23   58 1
    48   24   28 1
    49   24   25 2
    50   25   26 1
    51   25   37 1
    52   26   27 2
    53   26   32 1
    54   27   28 1
    55   27   29 1
    56   29   30 2
    57   29   31 1
    58   32   33 1
    59   33   34 1
    60   33   59 1
    61   33   60 1
    62   34   35 2
    63   34   36 1
@<TRIPOS>MOLECULE
CHEMBL24900
   52    56     0     0     0
SMALL
USER_CHARGES

@<TRIPOS>ATOM
      1 C1         -0.0166    1.3736    0.0096 C.ar      1 <0>        -0.1341
      2 C2          1.1724    2.0884    0.0021 C.ar      1 <0>        -0.0934
      3 C3          2.3855    1.4345   -0.0134 C.ar      1 <0>        -0.1076
      4 C4          2.4254    0.0454   -0.0212 C.ar      1 <0>         0.0507
      5 C5          1.2215   -0.6757   -0.0131 C.ar      1 <0>        -0.1154
      6 C6          0.0021   -0.0041    0.0020 C.ar      1 <0>        -0.0689
      7 C7          1.6133   -2.0971   -0.0251 C.2       1 <0>        -0.1416
      8 C8          2.9666   -2.1082   -0.0388 C.2       1 <0>         0.0253
      9 O1          3.4346   -0.8491   -0.0364 O.3       1 <0>        -0.1902
     10 C9          0.7106   -3.2723   -0.0221 C.ar      1 <0>        -0.0133
     11 C10        -0.3241   -3.3549    0.9101 C.ar      1 <0>        -0.1023
     12 C11        -1.1629   -4.4472    0.9127 C.ar      1 <0>        -0.1028
     13 C12        -0.9778   -5.4710   -0.0163 C.ar      1 <0>        -0.0453
     14 C13         0.0568   -5.3889   -0.9480 C.ar      1 <0>        -0.1005
     15 C14         0.8918   -4.2935   -0.9552 C.ar      1 <0>        -0.1045
     16 C15        -1.8808   -6.6472   -0.0130 C.ar      1 <0>        -0.0289
     17 C16        -2.9188   -6.7284    0.9143 C.ar      1 <0>        -0.0968
     18 C17        -3.7571   -7.8234    0.9144 C.ar      1 <0>        -0.0890
     19 C18        -3.5683   -8.8442   -0.0075 C.ar      1 <0>         0.0669
     20 C19        -2.5356   -8.7663   -0.9321 C.ar      1 <0>        -0.1088
     21 C20        -1.6971   -7.6715   -0.9409 C.ar      1 <0>        -0.0925
     22 O2         -4.3957   -9.9219   -0.0045 O.3       1 <0>        -0.6611
     23 S1         -5.6203   -9.7647   -0.8945 S.o2      1 <0>         2.6777
     24 O3         -6.4684  -10.8707   -0.6174 O.2       1 <0>        -0.9336
     25 O4         -6.0537   -8.4186   -0.7549 O.2       1 <0>        -0.9549
     26 C21        -5.0801   -9.9495   -2.5614 C.ar      1 <0>        -0.6931
     27 C22        -4.6633   -8.8383   -3.2773 C.ar      1 <0>        -0.0464
     28 C23        -4.2393   -8.9699   -4.5809 C.ar      1 <0>        -0.0923
     29 C24        -4.2282  -10.2309   -5.1865 C.ar      1 <0>        -0.0969
     30 C25        -4.6505  -11.3530   -4.4577 C.ar      1 <0>         0.1186
     31 C26        -5.0693  -11.2009   -3.1440 C.ar      1 <0>        -0.0621
     32 O5         -4.6446  -12.5808   -5.0332 O.3       1 <0>        -0.4683
     33 C27        -3.7769  -10.3794   -6.5793 C.2       1 <0>         0.5143
     34 O6         -3.4099   -9.3983   -7.2113 O.co2     1 <0>        -0.6804
     35 O7         -3.7688  -11.4840   -7.1052 O.co2     1 <0>        -0.6598
     36 H1         -0.9601    1.8989    0.0259 H         1 <0>         0.1310
     37 H2          1.1471    3.1680    0.0081 H         1 <0>         0.1355
     38 H3          3.3047    2.0014   -0.0199 H         1 <0>         0.1322
     39 H4         -0.9240   -0.5598    0.0082 H         1 <0>         0.1286
     40 H5          3.5794   -2.9975   -0.0494 H         1 <0>         0.2118
     41 H6         -0.4670   -2.5625    1.6299 H         1 <0>         0.1254
     42 H7         -1.9639   -4.5112    1.6343 H         1 <0>         0.1305
     43 H8          0.2005   -6.1820   -1.6668 H         1 <0>         0.1330
     44 H9          1.6898   -4.2275   -1.6800 H         1 <0>         0.1279
     45 H10        -3.0659   -5.9349    1.6319 H         1 <0>         0.1408
     46 H11        -4.5611   -7.8870    1.6327 H         1 <0>         0.1422
     47 H12        -2.3913   -9.5620   -1.6480 H         1 <0>         0.1456
     48 H13        -0.8965   -7.6095   -1.6631 H         1 <0>         0.1431
     49 H14        -4.6715   -7.8643   -2.8107 H         1 <0>         0.1348
     50 H15        -3.9162   -8.1010   -5.1349 H         1 <0>         0.1415
     51 H16        -5.3911  -12.0622   -2.5775 H         1 <0>         0.1404
     52 H17        -3.8156  -13.0652   -4.9180 H         1 <0>         0.3867
@<TRIPOS>BOND
     1    1    6 ar
     2    1    2 ar
     3    1   36 1
     4    2    3 ar
     5    2   37 1
     6    3    4 ar
     7    3   38 1
     8    4    9 1
     9    4    5 ar
    10    5    6 ar
    11    5    7 1
    12    6   39 1
    13    7    8 2
    14    7   10 1
    15    8    9 1
    16    8   40 1
    17   10   15 ar
    18   10   11 ar
    19   11   12 ar
    20   11   41 1
    21   12   13 ar
    22   12   42 1
    23   13   14 ar
    24   13   16 1
    25   14   15 ar
    26   14   43 1
    27   15   44 1
    28   16   21 ar
    29   16   17 ar
    30   17   18 ar
    31   17   45 1
    32   18   19 ar
    33   18   46 1
    34   19   20 ar
    35   19   22 1
    36   20   21 ar
    37   20   47 1
    38   21   48 1
    39   22   23 1
    40   23   24 2
    41   23   25 2
    42   23   26 1
    43   26   31 ar
    44   26   27 ar
    45   27   28 ar
    46   27   49 1
    47   28   29 ar
    48   28   50 1
    49   29   30 ar
    50   29   33 1
    51   30   31 ar
    52   30   32 1
    53   31   51 1
    54   32   52 1
    55   33   34 2
    56   33   35 1
@<TRIPOS>MOLECULE
CHEMBL109290
   38    42     0     0     0
SMALL
USER_CHARGES

@<TRIPOS>ATOM
      1 C1          0.0634    1.2374    0.9821 C.ar      1 <0>        -0.1060
      2 C2          1.2476    1.9730    0.9763 C.ar      1 <0>        -0.0932
      3 C3          2.4313    1.3875    0.6475 C.ar      1 <0>        -0.1106
      4 C4          2.4621    0.0233    0.3095 C.ar      1 <0>        -0.0072
      5 C5          1.2584   -0.7267    0.3153 C.ar      1 <0>        -0.0327
      6 C6          0.0561   -0.0847    0.6603 C.ar      1 <0>        -0.0987
      7 C7          1.2760   -2.0934   -0.0223 C.ar      1 <0>         0.0160
      8 C8          2.4895   -2.7289   -0.3686 C.ar      1 <0>        -0.0472
      9 C9          2.6697   -4.1491   -0.7450 C.ar      1 <0>        -0.0776
     10 C10         1.6694   -5.1418   -0.8313 C.ar      1 <0>        -0.0810
     11 C11         1.9879   -6.4255   -1.1964 C.ar      1 <0>        -0.1163
     12 C12         3.2942   -6.7856   -1.4903 C.ar      1 <0>        -0.0857
     13 C13         4.2944   -5.8351   -1.4143 C.ar      1 <0>        -0.0760
     14 C14         3.9814   -4.5420   -1.0477 C.ar      1 <0>        -0.1010
     15 S1          4.9502   -3.0704   -0.8396 S.3       1 <0>         0.0723
     16 C15         3.6621   -1.9457   -0.3613 C.ar      1 <0>        -0.0740
     17 C16         3.6653   -0.6135   -0.0353 C.ar      1 <0>        -0.0404
     18 Br1         5.2847    0.3628   -0.0505 Br        1 <0>        -0.0172
     19 C17         0.0167   -2.8688   -0.0139 C.ar      1 <0>        -0.0513
     20 C18        -0.2543   -3.7520    1.0327 C.ar      1 <0>        -0.0433
     21 C19        -1.4299   -4.4736    1.0370 C.ar      1 <0>        -0.1160
     22 C20        -2.3437   -4.3221    0.0017 C.ar      1 <0>         0.1717
     23 C21        -2.0775   -3.4442   -1.0414 C.ar      1 <0>        -0.1140
     24 C22        -0.9066   -2.7150   -1.0496 C.ar      1 <0>        -0.0448
     25 Br2        -3.3255   -3.2425   -2.4477 Br        1 <0>        -0.0124
     26 O1         -3.5007   -5.0350    0.0092 O.3       1 <0>        -0.4709
     27 Br3        -1.7978   -5.6708    2.4538 Br        1 <0>        -0.0120
     28 H1         -0.8627    1.7238    1.2507 H         1 <0>         0.1313
     29 H2          1.2253    3.0212    1.2358 H         1 <0>         0.1334
     30 H3          3.3421    1.9679    0.6459 H         1 <0>         0.1403
     31 H4         -0.8705   -0.6393    0.6700 H         1 <0>         0.1305
     32 H5          0.6437   -4.8883   -0.6074 H         1 <0>         0.1286
     33 H6          1.2069   -7.1691   -1.2557 H         1 <0>         0.1313
     34 H7          3.5281   -7.8006   -1.7758 H         1 <0>         0.1394
     35 H8          5.3159   -6.1030   -1.6403 H         1 <0>         0.1373
     36 H9          0.4559   -3.8705    1.8377 H         1 <0>         0.1476
     37 H10        -0.7026   -2.0290   -1.8585 H         1 <0>         0.1483
     38 H11        -4.2334   -4.5910    0.4576 H         1 <0>         0.4018
@<TRIPOS>BOND
     1    1    6 ar
     2    1    2 ar
     3    1   28 1
     4    2    3 ar
     5    2   29 1
     6    3    4 ar
     7    3   30 1
     8    4   17 ar
     9    4    5 ar
    10    5    6 ar
    11    5    7 ar
    12    6   31 1
    13    7    8 ar
    14    7   19 1
    15    8   16 ar
    16    8    9 1
    17    9   14 ar
    18    9   10 ar
    19   10   11 ar
    20   10   32 1
    21   11   12 ar
    22   11   33 1
    23   12   13 ar
    24   12   34 1
    25   13   14 ar
    26   13   35 1
    27   14   15 1
    28   15   16 1
    29   16   17 ar
    30   17   18 1
    31   19   24 ar
    32   19   20 ar
    33   20   21 ar
    34   20   36 1
    35   21   22 ar
    36   21   27 1
    37   22   23 ar
    38   22   26 1
    39   23   24 ar
    40   23   25 1
    41   24   37 1
    42   26   38 1
@<TRIPOS>MOLECULE
CHEMBL109290__1
   37    41     0     0     0
SMALL
USER_CHARGES

@<TRIPOS>ATOM
      1 C1          0.0634    1.2374    0.9821 C.ar      1 <0>        -0.1314
      2 C2          1.2476    1.9730    0.9763 C.ar      1 <0>        -0.0914
      3 C3          2.4313    1.3875    0.6475 C.ar      1 <0>        -0.1263
      4 C4          2.4621    0.0233    0.3095 C.ar      1 <0>        -0.0002
      5 C5          1.2584   -0.7267    0.3153 C.ar      1 <0>        -0.0518
      6 C6          0.0561   -0.0847    0.6603 C.ar      1 <0>        -0.0697
      7 C7          1.2760   -2.0934   -0.0223 C.ar      1 <0>         0.0947
      8 C8          2.4895   -2.7289   -0.3686 C.ar      1 <0>        -0.0830
      9 C9          2.6697   -4.1491   -0.7450 C.ar      1 <0>        -0.0580
     10 C10         1.6694   -5.1418   -0.8313 C.ar      1 <0>        -0.0725
     11 C11         1.9879   -6.4255   -1.1964 C.ar      1 <0>        -0.1184
     12 C12         3.2942   -6.7856   -1.4903 C.ar      1 <0>        -0.0978
     13 C13         4.2944   -5.8351   -1.4143 C.ar      1 <0>        -0.0844
     14 C14         3.9814   -4.5420   -1.0477 C.ar      1 <0>        -0.1107
     15 S1          4.9502   -3.0704   -0.8396 S.3       1 <0>         0.0436
     16 C15         3.6621   -1.9457   -0.3613 C.ar      1 <0>        -0.0564
     17 C16         3.6653   -0.6135   -0.0353 C.ar      1 <0>        -0.0686
     18 Br1         5.2847    0.3628   -0.0505 Br        1 <0>        -0.0395
     19 C17         0.0167   -2.8688   -0.0139 C.ar      1 <0>        -0.2239
     20 C18        -0.2543   -3.7520    1.0327 C.ar      1 <0>        -0.0015
     21 C19        -1.4299   -4.4736    1.0370 C.ar      1 <0>        -0.2178
     22 C20        -2.3437   -4.3221    0.0017 C.ar      1 <0>         0.3160
     23 C21        -2.0775   -3.4442   -1.0414 C.ar      1 <0>        -0.2179
     24 C22        -0.9066   -2.7150   -1.0496 C.ar      1 <0>        -0.0024
     25 Br2        -3.3255   -3.2425   -2.4477 Br        1 <0>        -0.0811
     26 O1         -3.5007   -5.0350    0.0092 O.3       1 <0>        -0.6510
     27 Br3        -1.7978   -5.6708    2.4538 Br        1 <0>        -0.0804
     28 H1         -0.8627    1.7238    1.2507 H         1 <0>         0.1257
     29 H2          1.2253    3.0212    1.2358 H         1 <0>         0.1252
     30 H3          3.3421    1.9679    0.6459 H         1 <0>         0.1333
     31 H4         -0.8705   -0.6393    0.6700 H         1 <0>         0.1390
     32 H5          0.6437   -4.8883   -0.6074 H         1 <0>         0.1496
     33 H6          1.2069   -7.1691   -1.2557 H         1 <0>         0.1287
     34 H7          3.5281   -7.8006   -1.7758 H         1 <0>         0.1320
     35 H8          5.3159   -6.1030   -1.6403 H         1 <0>         0.1291
     36 H9          0.4559   -3.8705    1.8377 H         1 <0>         0.1092
     37 H10        -0.7026   -2.0290   -1.8585 H         1 <0>         0.1099
@<TRIPOS>BOND
     1    1    6 ar
     2    1    2 ar
     3    1   28 1
     4    2    3 ar
     5    2   29 1
     6    3    4 ar
     7    3   30 1
     8    4   17 ar
     9    4    5 ar
    10    5    6 ar
    11    5    7 ar
    12    6   31 1
    13    7    8 ar
    14    7   19 1
    15    8   16 ar
    16    8    9 1
    17    9   14 ar
    18    9   10 ar
    19   10   11 ar
    20   10   32 1
    21   11   12 ar
    22   11   33 1
    23   12   13 ar
    24   12   34 1
    25   13   14 ar
    26   13   35 1
    27   14   15 1
    28   15   16 1
    29   16   17 ar
    30   17   18 1
    31   19   24 ar
    32   19   20 ar
    33   20   21 ar
    34   20   36 1
    35   21   22 ar
    36   21   27 1
    37   22   23 ar
    38   22   26 1
    39   23   24 ar
    40   23   25 1
    41   24   37 1
@<TRIPOS>MOLECULE
CHEMBL428589
   66    70     0     0     0
SMALL
USER_CHARGES

@<TRIPOS>ATOM
      1 C1         -0.0167    1.3780    0.0096 C.ar      1 <0>        -0.1206
      2 C2          1.1706    2.0866    0.0021 C.ar      1 <0>        -0.0782
      3 C3          2.3773    1.4137   -0.0131 C.ar      1 <0>        -0.1460
      4 C4          2.3974    0.0291   -0.0207 C.ar      1 <0>         0.1061
      5 C5          1.2080   -0.6793   -0.0132 C.ar      1 <0>        -0.1450
      6 C6          0.0021   -0.0041    0.0020 C.ar      1 <0>        -0.0943
      7 C7          1.2281   -2.1862   -0.0220 C.3       1 <0>        -0.0890
      8 C8          1.3746   -2.7026    1.4107 C.3       1 <0>         0.1030
      9 H1          2.2476   -2.2605    1.8908 H         1 <0>         0.1336
     10 C9          1.4639   -4.2422    1.4288 C.3       1 <0>         0.0558
     11 N1          0.2896   -4.6531    2.2112 N.pl3     1 <0>        -0.5981
     12 C10        -0.3726   -3.6223    2.5902 C.cat     1 <0>         0.5103
     13 N2          0.1560   -2.4270    2.1907 N.pl3     1 <0>        -0.6501
     14 C11        -1.6321   -3.7204    3.4119 C.3       1 <0>         0.1782
     15 C12        -2.8425   -3.8135    2.4807 C.3       1 <0>        -0.0827
     16 C13        -4.0892   -4.0347    3.2980 C.ar      1 <0>        -0.1176
     17 C14        -4.5025   -5.3202    3.5940 C.ar      1 <0>        -0.1047
     18 C15        -5.6460   -5.5232    4.3437 C.ar      1 <0>        -0.1085
     19 C16        -6.3760   -4.4407    4.7978 C.ar      1 <0>        -0.0189
     20 C17        -5.9622   -3.1552    4.5025 C.ar      1 <0>        -0.0796
     21 C18        -4.8163   -2.9522    3.7565 C.ar      1 <0>        -0.0618
     22 C19        -7.6232   -4.6620    5.6142 C.3       1 <0>        -0.5585
     23 C20        -8.8258   -3.8541    5.0524 C.3       1 <0>        -0.1418
     24 C21        -9.5974   -3.2937    6.2091 C.2       1 <0>         0.4299
     25 O1        -10.8616   -2.8580    6.0293 O.3       1 <0>        -0.6555
     26 N3         -9.0558   -3.2291    7.3691 N.2       1 <0>        -0.9073
     27 S1         -7.5055   -3.8542    7.2644 S.o2      1 <0>         2.4567
     28 O2         -7.4092   -4.8231    8.2993 O.2       1 <0>        -0.9834
     29 O3         -6.6381   -2.7295    7.2194 O.2       1 <0>        -0.9757
     30 N4         -1.7571   -2.5309    4.2579 N.pl3     1 <0>        -1.1149
     31 S2         -2.4147   -2.6574    5.7724 S.o2      1 <0>         2.6614
     32 O4         -2.3734   -1.3567    6.3431 O.2       1 <0>        -0.9244
     33 O5         -3.6247   -3.3888    5.6301 O.2       1 <0>        -0.8766
     34 C22        -1.3287   -3.6620    6.7296 C.ar      1 <0>        -0.6589
     35 C23        -1.5010   -5.0336    6.7577 C.ar      1 <0>        -0.0398
     36 C24        -0.6498   -5.8229    7.5081 C.ar      1 <0>        -0.1056
     37 C25         0.3744   -5.2417    8.2317 C.ar      1 <0>        -0.0958
     38 C26         0.5478   -3.8685    8.2044 C.ar      1 <0>         0.0856
     39 C27        -0.3018   -3.0793    7.4474 C.ar      1 <0>        -0.0584
     40 F1          1.5483   -3.2992    8.9117 F         1 <0>        -0.1295
     41 F2          3.5766   -0.6299   -0.0360 F         1 <0>        -0.1349
     42 H2         -0.9594    1.9048    0.0260 H         1 <0>         0.1380
     43 H3          1.1547    3.1665    0.0077 H         1 <0>         0.1401
     44 H4          3.3046    1.9675   -0.0193 H         1 <0>         0.1416
     45 H5         -0.9259   -0.5565    0.0083 H         1 <0>         0.1332
     46 H6          0.2975   -2.5595   -0.4494 H         1 <0>         0.0978
     47 H7          2.0689   -2.5348   -0.6216 H         1 <0>         0.1121
     48 H8          1.4073   -4.6406    0.4158 H         1 <0>         0.1350
     49 H9          2.3823   -4.5665    1.9180 H         1 <0>         0.1352
     50 H10        -0.2072   -1.5488    2.3853 H         1 <0>         0.4556
     51 H11        -1.5877   -4.6100    4.0401 H         1 <0>         0.1420
     52 H12        -2.9384   -2.8863    1.9156 H         1 <0>         0.0956
     53 H13        -2.7074   -4.6468    1.7913 H         1 <0>         0.0970
     54 H14        -3.9321   -6.1660    3.2393 H         1 <0>         0.1146
     55 H15        -5.9692   -6.5276    4.5744 H         1 <0>         0.1214
     56 H16        -6.5327   -2.3095    4.8570 H         1 <0>         0.1315
     57 H17        -4.4910   -1.9478    3.5289 H         1 <0>         0.1110
     58 H18        -7.8573   -5.7229    5.7025 H         1 <0>         0.1395
     59 H19        -8.4613   -3.0407    4.4249 H         1 <0>         0.1030
     60 H20        -9.4680   -4.5108    4.4656 H         1 <0>         0.1068
     61 H21        -1.4547   -1.6692    3.9309 H         1 <0>         0.4188
     62 H22        -2.3014   -5.4886    6.1931 H         1 <0>         0.1534
     63 H23        -0.7853   -6.8942    7.5292 H         1 <0>         0.1486
     64 H24         1.0388   -5.8585    8.8186 H         1 <0>         0.1481
     65 H25        -0.1647   -2.0083    7.4218 H         1 <0>         0.1523
     66 H26         0.0500   -5.5714    2.4120 H         1 <0>         0.4632
@<TRIPOS>BOND
     1    1    6 ar
     2    1    2 ar
     3    1   42 1
     4    2    3 ar
     5    2   43 1
     6    3    4 ar
     7    3   44 1
     8    4    5 ar
     9    4   41 1
    10    5    6 ar
    11    5    7 1
    12    6   45 1
    13    7    8 1
    14    7   46 1
    15    7   47 1
    16    8    9 1
    17    8   13 1
    18    8   10 1
    19   10   11 1
    20   10   48 1
    21   10   49 1
    22   11   12 2
    23   11   66 1
    24   12   13 1
    25   12   14 1
    26   13   50 1
    27   14   15 1
    28   14   30 1
    29   14   51 1
    30   15   16 1
    31   15   52 1
    32   15   53 1
    33   16   21 ar
    34   16   17 ar
    35   17   18 ar
    36   17   54 1
    37   18   19 ar
    38   18   55 1
    39   19   20 ar
    40   19   22 1
    41   20   21 ar
    42   20   56 1
    43   21   57 1
    44   22   27 1
    45   22   23 1
    46   22   58 1
    47   23   24 1
    48   23   59 1
    49   23   60 1
    50   24   25 1
    51   24   26 2
    52   26   27 1
    53   27   28 2
    54   27   29 2
    55   30   31 1
    56   30   61 1
    57   31   32 2
    58   31   33 2
    59   31   34 1
    60   34   39 ar
    61   34   35 ar
    62   35   36 ar
    63   35   62 1
    64   36   37 ar
    65   36   63 1
    66   37   38 ar
    67   37   64 1
    68   38   39 ar
    69   38   40 1
    70   39   65 1
@<TRIPOS>MOLECULE
CHEMBL428589__1
   66    70     0     0     0
SMALL
USER_CHARGES

@<TRIPOS>ATOM
      1 C1         -0.0167    1.3780    0.0096 C.ar      1 <0>        -0.1202
      2 C2          1.1706    2.0866    0.0021 C.ar      1 <0>        -0.0782
      3 C3          2.3773    1.4137   -0.0131 C.ar      1 <0>        -0.1463
      4 C4          2.3974    0.0291   -0.0207 C.ar      1 <0>         0.1056
      5 C5          1.2080   -0.6793   -0.0132 C.ar      1 <0>        -0.1451
      6 C6          0.0021   -0.0041    0.0020 C.ar      1 <0>        -0.0940
      7 C7          1.2281   -2.1862   -0.0220 C.3       1 <0>        -0.0892
      8 C8          1.3746   -2.7026    1.4107 C.3       1 <0>         0.1031
      9 H1          2.2476   -2.2605    1.8908 H         1 <0>         0.1335
     10 C9          1.4639   -4.2422    1.4288 C.3       1 <0>         0.0559
     11 N1          0.2896   -4.6531    2.2112 N.pl3     1 <0>        -0.5983
     12 C10        -0.3726   -3.6223    2.5902 C.cat     1 <0>         0.5101
     13 N2          0.1560   -2.4270    2.1907 N.pl3     1 <0>        -0.6499
     14 C11        -1.6321   -3.7204    3.4119 C.3       1 <0>         0.1791
     15 C12        -2.8425   -3.8135    2.4807 C.3       1 <0>        -0.0834
     16 C13        -4.0892   -4.0347    3.2980 C.ar      1 <0>        -0.1177
     17 C14        -4.5025   -5.3202    3.5940 C.ar      1 <0>        -0.1037
     18 C15        -5.6460   -5.5232    4.3437 C.ar      1 <0>        -0.1091
     19 C16        -6.3760   -4.4407    4.7978 C.ar      1 <0>        -0.0078
     20 C17        -5.9622   -3.1552    4.5025 C.ar      1 <0>        -0.0809
     21 C18        -4.8163   -2.9522    3.7565 C.ar      1 <0>        -0.0577
     22 C19        -7.6232   -4.6620    5.6142 C.3       1 <0>        -0.5584
     23 C20        -7.6107   -3.8174    6.9185 C.3       1 <0>        -0.1444
     24 C21        -8.3518   -2.5404    6.6590 C.2       1 <0>         0.4308
     25 O1         -8.1952   -1.4886    7.4893 O.3       1 <0>        -0.6555
     26 N3         -9.1340   -2.4480    5.6476 N.2       1 <0>        -0.9057
     27 S1         -9.0988   -3.9023    4.8175 S.o2      1 <0>         2.4525
     28 O2         -8.8295   -3.5671    3.4631 O.2       1 <0>        -0.9736
     29 O3        -10.2868   -4.5877    5.1890 O.2       1 <0>        -0.9888
     30 N4         -1.7571   -2.5309    4.2579 N.pl3     1 <0>        -1.1137
     31 S2         -2.4147   -2.6574    5.7724 S.o2      1 <0>         2.6617
     32 O4         -2.3734   -1.3567    6.3431 O.2       1 <0>        -0.9263
     33 O5         -3.6247   -3.3888    5.6301 O.2       1 <0>        -0.8805
     34 C22        -1.3287   -3.6620    6.7296 C.ar      1 <0>        -0.6584
     35 C23        -1.5010   -5.0336    6.7577 C.ar      1 <0>        -0.0389
     36 C24        -0.6498   -5.8229    7.5081 C.ar      1 <0>        -0.1063
     37 C25         0.3744   -5.2417    8.2317 C.ar      1 <0>        -0.0959
     38 C26         0.5478   -3.8685    8.2044 C.ar      1 <0>         0.0857
     39 C27        -0.3018   -3.0793    7.4474 C.ar      1 <0>        -0.0581
     40 F1          1.5483   -3.2992    8.9117 F         1 <0>        -0.1292
     41 F2          3.5766   -0.6299   -0.0360 F         1 <0>        -0.1353
     42 H2         -0.9594    1.9048    0.0260 H         1 <0>         0.1385
     43 H3          1.1547    3.1665    0.0077 H         1 <0>         0.1401
     44 H4          3.3046    1.9675   -0.0193 H         1 <0>         0.1414
     45 H5         -0.9259   -0.5565    0.0083 H         1 <0>         0.1337
     46 H6          0.2975   -2.5595   -0.4494 H         1 <0>         0.0982
     47 H7          2.0689   -2.5348   -0.6216 H         1 <0>         0.1120
     48 H8          1.4073   -4.6406    0.4158 H         1 <0>         0.1351
     49 H9          2.3823   -4.5665    1.9180 H         1 <0>         0.1349
     50 H10        -0.2072   -1.5488    2.3853 H         1 <0>         0.4557
     51 H11        -1.5877   -4.6100    4.0401 H         1 <0>         0.1417
     52 H12        -2.9384   -2.8863    1.9156 H         1 <0>         0.0964
     53 H13        -2.7074   -4.6468    1.7913 H         1 <0>         0.0976
     54 H14        -3.9321   -6.1660    3.2393 H         1 <0>         0.1139
     55 H15        -5.9692   -6.5276    4.5744 H         1 <0>         0.1195
     56 H16        -6.5327   -2.3095    4.8570 H         1 <0>         0.1258
     57 H17        -4.4910   -1.9478    3.5289 H         1 <0>         0.1107
     58 H18        -7.7795   -5.7206    5.8219 H         1 <0>         0.1383
     59 H19        -8.1007   -4.3707    7.7196 H         1 <0>         0.1052
     60 H20        -6.5822   -3.5945    7.2024 H         1 <0>         0.1092
     61 H21        -1.4547   -1.6692    3.9309 H         1 <0>         0.4197
     62 H22        -2.3014   -5.4886    6.1931 H         1 <0>         0.1538
     63 H23        -0.7853   -6.8942    7.5292 H         1 <0>         0.1479
     64 H24         1.0388   -5.8585    8.8186 H         1 <0>         0.1478
     65 H25        -0.1647   -2.0083    7.4218 H         1 <0>         0.1525
     66 H26         0.0500   -5.5714    2.4120 H         1 <0>         0.4630
@<TRIPOS>BOND
     1    1    6 ar
     2    1    2 ar
     3    1   42 1
     4    2    3 ar
     5    2   43 1
     6    3    4 ar
     7    3   44 1
     8    4    5 ar
     9    4   41 1
    10    5    6 ar
    11    5    7 1
    12    6   45 1
    13    7    8 1
    14    7   46 1
    15    7   47 1
    16    8    9 1
    17    8   13 1
    18    8   10 1
    19   10   11 1
    20   10   48 1
    21   10   49 1
    22   11   12 2
    23   11   66 1
    24   12   13 1
    25   12   14 1
    26   13   50 1
    27   14   15 1
    28   14   30 1
    29   14   51 1
    30   15   16 1
    31   15   52 1
    32   15   53 1
    33   16   21 ar
    34   16   17 ar
    35   17   18 ar
    36   17   54 1
    37   18   19 ar
    38   18   55 1
    39   19   20 ar
    40   19   22 1
    41   20   21 ar
    42   20   56 1
    43   21   57 1
    44   22   27 1
    45   22   23 1
    46   22   58 1
    47   23   24 1
    48   23   59 1
    49   23   60 1
    50   24   25 1
    51   24   26 2
    52   26   27 1
    53   27   28 2
    54   27   29 2
    55   30   31 1
    56   30   61 1
    57   31   32 2
    58   31   33 2
    59   31   34 1
    60   34   39 ar
    61   34   35 ar
    62   35   36 ar
    63   35   62 1
    64   36   37 ar
    65   36   63 1
    66   37   38 ar
    67   37   64 1
    68   38   39 ar
    69   38   40 1
    70   39   65 1
@<TRIPOS>MOLECULE
CHEMBL428589__2
   66    70     0     0     0
SMALL
USER_CHARGES

@<TRIPOS>ATOM
      1 C1         -0.0167    1.3780    0.0096 C.ar      1 <0>        -0.1213
      2 C2          1.1706    2.0866    0.0021 C.ar      1 <0>        -0.0791
      3 C3          2.3773    1.4137   -0.0131 C.ar      1 <0>        -0.1462
      4 C4          2.3974    0.0291   -0.0207 C.ar      1 <0>         0.1066
      5 C5          1.2080   -0.6793   -0.0132 C.ar      1 <0>        -0.1433
      6 C6          0.0021   -0.0041    0.0020 C.ar      1 <0>        -0.0935
      7 C7          1.2281   -2.1862   -0.0220 C.3       1 <0>        -0.0889
      8 C8          1.3746   -2.7026    1.4107 C.3       1 <0>         0.1043
      9 H1          2.2476   -2.2605    1.8908 H         1 <0>         0.1343
     10 C9          1.4639   -4.2422    1.4288 C.3       1 <0>         0.0542
     11 N1          0.2896   -4.6531    2.2112 N.pl3     1 <0>        -0.5945
     12 C10        -0.3726   -3.6223    2.5902 C.cat     1 <0>         0.5013
     13 N2          0.1560   -2.4270    2.1907 N.pl3     1 <0>        -0.6482
     14 C11        -1.6321   -3.7204    3.4119 C.3       1 <0>         0.1745
     15 C12        -2.8425   -3.8135    2.4807 C.3       1 <0>        -0.0723
     16 C13        -4.1083   -3.7878    3.2982 C.ar      1 <0>        -0.1180
     17 C14        -4.6570   -4.9696    3.7598 C.ar      1 <0>        -0.1069
     18 C15        -5.8180   -4.9461    4.5097 C.ar      1 <0>        -0.1106
     19 C16        -6.4302   -3.7408    4.7983 C.ar      1 <0>        -0.0281
     20 C17        -5.8810   -2.5589    4.3373 C.ar      1 <0>        -0.0973
     21 C18        -4.7176   -2.5821    3.5911 C.ar      1 <0>        -0.1005
     22 C19        -7.6965   -3.7152    5.6149 C.3       1 <0>        -0.5636
     23 C20        -8.8044   -2.8708    4.9264 C.3       1 <0>        -0.1414
     24 C21        -9.5158   -2.0784    5.9815 C.2       1 <0>         0.4290
     25 O1        -10.7258   -1.5414    5.7212 O.3       1 <0>        -0.6505
     26 N3         -8.9742   -1.9115    7.1313 N.2       1 <0>        -0.9038
     27 S1         -7.4988   -2.7043    7.1408 S.o2      1 <0>         2.4485
     28 O2         -7.5096   -3.5259    8.3002 O.2       1 <0>        -0.9634
     29 O3         -6.5165   -1.6939    6.9579 O.2       1 <0>        -0.9832
     30 N4         -1.5724   -4.9161    4.2562 N.pl3     1 <0>        -1.1148
     31 S2         -1.0338   -4.8009    5.8179 S.o2      1 <0>         2.6860
     32 O4         -1.1187   -6.1057    6.3741 O.2       1 <0>        -0.9301
     33 O5          0.1834   -4.0688    5.7748 O.2       1 <0>        -0.9481
     34 C22        -2.1907   -3.8031    6.6958 C.ar      1 <0>        -0.6646
     35 C23        -2.0215   -2.4317    6.7471 C.ar      1 <0>        -0.0437
     36 C24        -2.9283   -1.6477    7.4354 C.ar      1 <0>        -0.1013
     37 C25        -4.0051   -2.2340    8.0735 C.ar      1 <0>        -0.0499
     38 C26        -4.1755   -3.6069    8.0228 C.ar      1 <0>         0.0742
     39 C27        -3.2698   -4.3907    7.3278 C.ar      1 <0>        -0.0505
     40 F1         -5.2275   -4.1810    8.6465 F         1 <0>        -0.1057
     41 F2          3.5766   -0.6299   -0.0360 F         1 <0>        -0.1346
     42 H2         -0.9594    1.9048    0.0260 H         1 <0>         0.1372
     43 H3          1.1547    3.1665    0.0077 H         1 <0>         0.1394
     44 H4          3.3046    1.9675   -0.0193 H         1 <0>         0.1413
     45 H5         -0.9259   -0.5565    0.0083 H         1 <0>         0.1329
     46 H6          0.2975   -2.5595   -0.4494 H         1 <0>         0.0969
     47 H7          2.0689   -2.5348   -0.6216 H         1 <0>         0.1114
     48 H8          1.4073   -4.6406    0.4158 H         1 <0>         0.1340
     49 H9          2.3823   -4.5665    1.9180 H         1 <0>         0.1350
     50 H10        -0.2072   -1.5488    2.3853 H         1 <0>         0.4579
     51 H11        -1.7251   -2.8354    4.0413 H         1 <0>         0.1469
     52 H12        -2.8373   -2.9682    1.7925 H         1 <0>         0.1038
     53 H13        -2.7946   -4.7435    1.9143 H         1 <0>         0.0979
     54 H14        -4.1787   -5.9114    3.5344 H         1 <0>         0.1227
     55 H15        -6.2471   -5.8695    4.8698 H         1 <0>         0.1293
     56 H16        -6.3594   -1.6172    4.5625 H         1 <0>         0.1398
     57 H17        -4.2865   -1.6584    3.2342 H         1 <0>         0.1257
     58 H18        -8.0425   -4.7233    5.8432 H         1 <0>         0.1410
     59 H19        -8.3535   -2.1945    4.2001 H         1 <0>         0.1031
     60 H20        -9.5110   -3.5311    4.4235 H         1 <0>         0.1082
     61 H21        -1.8484   -5.7753    3.9005 H         1 <0>         0.4310
     62 H22        -1.1800   -1.9729    6.2494 H         1 <0>         0.1388
     63 H23        -2.7951   -0.5767    7.4748 H         1 <0>         0.1457
     64 H24        -4.7131   -1.6212    8.6118 H         1 <0>         0.1550
     65 H25        -3.4042   -5.4614    7.2838 H         1 <0>         0.1511
     66 H26         0.0500   -5.5714    2.4120 H         1 <0>         0.4591
@<TRIPOS>BOND
     1    1    6 ar
     2    1    2 ar
     3    1   42 1
     4    2    3 ar
     5    2   43 1
     6    3    4 ar
     7    3   44 1
     8    4    5 ar
     9    4   41 1
    10    5    6 ar
    11    5    7 1
    12    6   45 1
    13    7    8 1
    14    7   46 1
    15    7   47 1
    16    8    9 1
    17    8   13 1
    18    8   10 1
    19   10   11 1
    20   10   48 1
    21   10   49 1
    22   11   12 2
    23   11   66 1
    24   12   13 1
    25   12   14 1
    26   13   50 1
    27   14   15 1
    28   14   30 1
    29   14   51 1
    30   15   16 1
    31   15   52 1
    32   15   53 1
    33   16   21 ar
    34   16   17 ar
    35   17   18 ar
    36   17   54 1
    37   18   19 ar
    38   18   55 1
    39   19   20 ar
    40   19   22 1
    41   20   21 ar
    42   20   56 1
    43   21   57 1
    44   22   27 1
    45   22   23 1
    46   22   58 1
    47   23   24 1
    48   23   59 1
    49   23   60 1
    50   24   25 1
    51   24   26 2
    52   26   27 1
    53   27   28 2
    54   27   29 2
    55   30   31 1
    56   30   61 1
    57   31   32 2
    58   31   33 2
    59   31   34 1
    60   34   39 ar
    61   34   35 ar
    62   35   36 ar
    63   35   62 1
    64   36   37 ar
    65   36   63 1
    66   37   38 ar
    67   37   64 1
    68   38   39 ar
    69   38   40 1
    70   39   65 1
@<TRIPOS>MOLECULE
CHEMBL428589__3
   66    70     0     0     0
SMALL
USER_CHARGES

@<TRIPOS>ATOM
      1 C1         -0.0167    1.3780    0.0096 C.ar      1 <0>        -0.1208
      2 C2          1.1706    2.0866    0.0021 C.ar      1 <0>        -0.0791
      3 C3          2.3773    1.4137   -0.0131 C.ar      1 <0>        -0.1466
      4 C4          2.3974    0.0291   -0.0207 C.ar      1 <0>         0.1061
      5 C5          1.2080   -0.6793   -0.0132 C.ar      1 <0>        -0.1435
      6 C6          0.0021   -0.0041    0.0020 C.ar      1 <0>        -0.0932
      7 C7          1.2281   -2.1862   -0.0220 C.3       1 <0>        -0.0892
      8 C8          1.3746   -2.7026    1.4107 C.3       1 <0>         0.1045
      9 H1          2.2476   -2.2605    1.8908 H         1 <0>         0.1343
     10 C9          1.4639   -4.2422    1.4288 C.3       1 <0>         0.0543
     11 N1          0.2896   -4.6531    2.2112 N.pl3     1 <0>        -0.5947
     12 C10        -0.3726   -3.6223    2.5902 C.cat     1 <0>         0.5012
     13 N2          0.1560   -2.4270    2.1907 N.pl3     1 <0>        -0.6478
     14 C11        -1.6321   -3.7204    3.4119 C.3       1 <0>         0.1749
     15 C12        -2.8425   -3.8135    2.4807 C.3       1 <0>        -0.0725
     16 C13        -4.1083   -3.7878    3.2982 C.ar      1 <0>        -0.1188
     17 C14        -4.6570   -4.9696    3.7598 C.ar      1 <0>        -0.1060
     18 C15        -5.8180   -4.9461    4.5097 C.ar      1 <0>        -0.1109
     19 C16        -6.4302   -3.7408    4.7983 C.ar      1 <0>        -0.0161
     20 C17        -5.8810   -2.5589    4.3373 C.ar      1 <0>        -0.1002
     21 C18        -4.7176   -2.5821    3.5911 C.ar      1 <0>        -0.0964
     22 C19        -7.6965   -3.7152    5.6149 C.3       1 <0>        -0.5630
     23 C20        -7.5984   -2.7047    6.7913 C.3       1 <0>        -0.1419
     24 C21        -8.1986   -1.4051    6.3463 C.2       1 <0>         0.4312
     25 O1         -7.9337   -0.2711    7.0276 O.3       1 <0>        -0.6545
     26 N3         -8.9632   -1.3716    5.3180 N.2       1 <0>        -0.9016
     27 S1         -9.0803   -2.9220    4.6954 S.o2      1 <0>         2.4547
     28 O2         -8.7724   -2.8070    3.3129 O.2       1 <0>        -0.9714
     29 O3        -10.3357   -3.4211    5.1359 O.2       1 <0>        -0.9839
     30 N4         -1.5724   -4.9161    4.2562 N.pl3     1 <0>        -1.1136
     31 S2         -1.0338   -4.8009    5.8179 S.o2      1 <0>         2.6867
     32 O4         -1.1187   -6.1057    6.3741 O.2       1 <0>        -0.9297
     33 O5          0.1834   -4.0688    5.7748 O.2       1 <0>        -0.9467
     34 C22        -2.1907   -3.8031    6.6958 C.ar      1 <0>        -0.6577
     35 C23        -2.0215   -2.4317    6.7471 C.ar      1 <0>        -0.0427
     36 C24        -2.9283   -1.6477    7.4354 C.ar      1 <0>        -0.0990
     37 C25        -4.0051   -2.2340    8.0735 C.ar      1 <0>        -0.0813
     38 C26        -4.1755   -3.6069    8.0228 C.ar      1 <0>         0.0966
     39 C27        -3.2698   -4.3907    7.3278 C.ar      1 <0>        -0.0466
     40 F1         -5.2275   -4.1810    8.6465 F         1 <0>        -0.1229
     41 F2          3.5766   -0.6299   -0.0360 F         1 <0>        -0.1350
     42 H2         -0.9594    1.9048    0.0260 H         1 <0>         0.1378
     43 H3          1.1547    3.1665    0.0077 H         1 <0>         0.1394
     44 H4          3.3046    1.9675   -0.0193 H         1 <0>         0.1410
     45 H5         -0.9259   -0.5565    0.0083 H         1 <0>         0.1335
     46 H6          0.2975   -2.5595   -0.4494 H         1 <0>         0.0973
     47 H7          2.0689   -2.5348   -0.6216 H         1 <0>         0.1113
     48 H8          1.4073   -4.6406    0.4158 H         1 <0>         0.1341
     49 H9          2.3823   -4.5665    1.9180 H         1 <0>         0.1348
     50 H10        -0.2072   -1.5488    2.3853 H         1 <0>         0.4581
     51 H11        -1.7251   -2.8354    4.0413 H         1 <0>         0.1461
     52 H12        -2.8373   -2.9682    1.7925 H         1 <0>         0.1048
     53 H13        -2.7946   -4.7435    1.9143 H         1 <0>         0.0984
     54 H14        -4.1787   -5.9114    3.5344 H         1 <0>         0.1220
     55 H15        -6.2471   -5.8695    4.8698 H         1 <0>         0.1279
     56 H16        -6.3594   -1.6172    4.5625 H         1 <0>         0.1338
     57 H17        -4.2865   -1.6584    3.2342 H         1 <0>         0.1257
     58 H18        -7.9653   -4.7127    5.9626 H         1 <0>         0.1416
     59 H19        -8.1472   -3.0877    7.6517 H         1 <0>         0.1083
     60 H20        -6.5529   -2.5540    7.0604 H         1 <0>         0.0993
     61 H21        -1.8484   -5.7753    3.9005 H         1 <0>         0.4317
     62 H22        -1.1800   -1.9729    6.2494 H         1 <0>         0.1411
     63 H23        -2.7951   -0.5767    7.4748 H         1 <0>         0.1484
     64 H24        -4.7131   -1.6212    8.6118 H         1 <0>         0.1553
     65 H25        -3.4042   -5.4614    7.2838 H         1 <0>         0.1522
     66 H26         0.0500   -5.5714    2.4120 H         1 <0>         0.4589
@<TRIPOS>BOND
     1    1    6 ar
     2    1    2 ar
     3    1   42 1
     4    2    3 ar
     5    2   43 1
     6    3    4 ar
     7    3   44 1
     8    4    5 ar
     9    4   41 1
    10    5    6 ar
    11    5    7 1
    12    6   45 1
    13    7    8 1
    14    7   46 1
    15    7   47 1
    16    8    9 1
    17    8   13 1
    18    8   10 1
    19   10   11 1
    20   10   48 1
    21   10   49 1
    22   11   12 2
    23   11   66 1
    24   12   13 1
    25   12   14 1
    26   13   50 1
    27   14   15 1
    28   14   30 1
    29   14   51 1
    30   15   16 1
    31   15   52 1
    32   15   53 1
    33   16   21 ar
    34   16   17 ar
    35   17   18 ar
    36   17   54 1
    37   18   19 ar
    38   18   55 1
    39   19   20 ar
    40   19   22 1
    41   20   21 ar
    42   20   56 1
    43   21   57 1
    44   22   27 1
    45   22   23 1
    46   22   58 1
    47   23   24 1
    48   23   59 1
    49   23   60 1
    50   24   25 1
    51   24   26 2
    52   26   27 1
    53   27   28 2
    54   27   29 2
    55   30   31 1
    56   30   61 1
    57   31   32 2
    58   31   33 2
    59   31   34 1
    60   34   39 ar
    61   34   35 ar
    62   35   36 ar
    63   35   62 1
    64   36   37 ar
    65   36   63 1
    66   37   38 ar
    67   37   64 1
    68   38   39 ar
    69   38   40 1
    70   39   65 1
@<TRIPOS>MOLECULE
CHEMBL403577
   69    73     0     0     0
SMALL
USER_CHARGES

@<TRIPOS>ATOM
      1 C1         -0.0167    1.3781    0.0096 C.ar      1 <0>        -0.1152
      2 C2          1.1709    2.0855    0.0021 C.ar      1 <0>        -0.1151
      3 C3          2.3773    1.4107   -0.0130 C.ar      1 <0>        -0.1157
      4 C4          2.3960    0.0285   -0.0201 C.ar      1 <0>        -0.0971
      5 C5          1.2084   -0.6789   -0.0117 C.ar      1 <0>        -0.1152
      6 C6          0.0021   -0.0041    0.0020 C.ar      1 <0>        -0.1158
      7 C7          3.7112   -0.7071   -0.0376 C.3       1 <0>        -0.0811
      8 C8          4.1714   -0.9633    1.3989 C.3       1 <0>        -0.1304
      9 C9          5.5066   -1.7102    1.3812 C.3       1 <0>         0.0987
     10 H1          5.4309   -2.6176    0.7821 H         1 <0>         0.1348
     11 C10         5.9653   -2.0408    2.8160 C.3       1 <0>         0.0541
     12 N1          7.2394   -1.3211    2.9523 N.pl3     1 <0>        -0.5986
     13 C11         7.5114   -0.6934    1.8675 C.cat     1 <0>         0.5109
     14 N2          6.5827   -0.8408    0.8757 N.pl3     1 <0>        -0.6521
     15 C12         8.7562    0.1391    1.6986 C.3       1 <0>         0.1782
     16 C13         8.4707    1.5777    2.1343 C.3       1 <0>        -0.0827
     17 C14         9.7449    2.3806    2.0822 C.ar      1 <0>        -0.1175
     18 C15        10.5661    2.4467    3.1922 C.ar      1 <0>        -0.1048
     19 C16        11.7350    3.1832    3.1444 C.ar      1 <0>        -0.1085
     20 C17        12.0828    3.8532    1.9864 C.ar      1 <0>        -0.0190
     21 C18        11.2620    3.7864    0.8761 C.ar      1 <0>        -0.0795
     22 C19        10.0954    3.0464    0.9225 C.ar      1 <0>        -0.0619
     23 C20        13.3565    4.6570    1.9346 C.3       1 <0>        -0.5584
     24 C21        13.1054    6.0932    1.3971 C.3       1 <0>        -0.1418
     25 C22        14.2374    6.4585    0.4847 C.2       1 <0>         0.4299
     26 O1         14.4558    7.7508    0.1643 O.3       1 <0>        -0.6555
     27 N3         14.9980    5.5427    0.0093 N.2       1 <0>        -0.9072
     28 S1         14.4784    4.0643    0.6005 S.o2      1 <0>         2.4566
     29 O2         15.6322    3.4398    1.1464 O.2       1 <0>        -0.9834
     30 O3         13.7405    3.4641   -0.4552 O.2       1 <0>        -0.9757
     31 N4          9.1647    0.1269    0.2918 N.pl3     1 <0>        -1.1147
     32 S2         10.7726    0.1469   -0.1038 S.o2      1 <0>         2.6613
     33 O4         10.8425    0.1022   -1.5223 O.2       1 <0>        -0.9244
     34 O5         11.3646    1.1920    0.6555 O.2       1 <0>        -0.8767
     35 C23        11.4722   -1.3602    0.4827 C.ar      1 <0>        -0.6587
     36 C24        11.9925   -1.4288    1.7619 C.ar      1 <0>        -0.0398
     37 C25        12.5416   -2.6104    2.2233 C.ar      1 <0>        -0.1056
     38 C26        12.5716   -3.7247    1.4060 C.ar      1 <0>        -0.0959
     39 C27        12.0509   -3.6571    0.1251 C.ar      1 <0>         0.0855
     40 C28        11.4955   -2.4745   -0.3340 C.ar      1 <0>        -0.0583
     41 F1         12.0800   -4.7455   -0.6748 F         1 <0>        -0.1295
     42 H2         -0.9591    1.9053    0.0259 H         1 <0>         0.1252
     43 H3          1.1563    3.1654    0.0076 H         1 <0>         0.1254
     44 H4          3.3051    1.9634   -0.0196 H         1 <0>         0.1200
     45 H5          1.2231   -1.7588   -0.0176 H         1 <0>         0.1218
     46 H6         -0.9258   -0.5567    0.0082 H         1 <0>         0.1250
     47 H7          3.5884   -1.6586   -0.5549 H         1 <0>         0.0826
     48 H8          4.4573   -0.1052   -0.5563 H         1 <0>         0.0715
     49 H9          4.2941   -0.0118    1.9163 H         1 <0>         0.0849
     50 H10         3.4252   -1.5652    1.9176 H         1 <0>         0.1025
     51 H11         5.2400   -1.6760    3.5433 H         1 <0>         0.1331
     52 H12         6.1177   -3.1140    2.9312 H         1 <0>         0.1332
     53 H13         6.6231   -0.4423   -0.0077 H         1 <0>         0.4557
     54 H14         9.5560   -0.2746    2.3128 H         1 <0>         0.1414
     55 H15         7.7342    2.0210    1.4641 H         1 <0>         0.0956
     56 H16         8.0821    1.5785    3.1527 H         1 <0>         0.0965
     57 H17        10.2944    1.9232    4.0969 H         1 <0>         0.1144
     58 H18        12.3762    3.2354    4.0118 H         1 <0>         0.1214
     59 H19        11.5336    4.3102   -0.0285 H         1 <0>         0.1316
     60 H20         9.4560    2.9912    0.0539 H         1 <0>         0.1110
     61 H21        13.8569    4.6715    2.9028 H         1 <0>         0.1395
     62 H22        12.1654    6.1205    0.8459 H         1 <0>         0.1030
     63 H23        13.0631    6.7953    2.2298 H         1 <0>         0.1069
     64 H24         8.4933    0.1071   -0.4080 H         1 <0>         0.4189
     65 H25        11.9702   -0.5584    2.4009 H         1 <0>         0.1533
     66 H26        12.9478   -2.6628    3.2226 H         1 <0>         0.1485
     67 H27        13.0013   -4.6476    1.7665 H         1 <0>         0.1481
     68 H28        11.0850   -2.4219   -1.3315 H         1 <0>         0.1524
     69 H29         7.7945   -1.3209    3.7478 H         1 <0>         0.4626
@<TRIPOS>BOND
     1    1    6 ar
     2    1    2 ar
     3    1   42 1
     4    2    3 ar
     5    2   43 1
     6    3    4 ar
     7    3   44 1
     8    4    5 ar
     9    4    7 1
    10    5    6 ar
    11    5   45 1
    12    6   46 1
    13    7    8 1
    14    7   47 1
    15    7   48 1
    16    8    9 1
    17    8   49 1
    18    8   50 1
    19    9   10 1
    20    9   14 1
    21    9   11 1
    22   11   12 1
    23   11   51 1
    24   11   52 1
    25   12   13 2
    26   12   69 1
    27   13   14 1
    28   13   15 1
    29   14   53 1
    30   15   16 1
    31   15   31 1
    32   15   54 1
    33   16   17 1
    34   16   55 1
    35   16   56 1
    36   17   22 ar
    37   17   18 ar
    38   18   19 ar
    39   18   57 1
    40   19   20 ar
    41   19   58 1
    42   20   21 ar
    43   20   23 1
    44   21   22 ar
    45   21   59 1
    46   22   60 1
    47   23   28 1
    48   23   24 1
    49   23   61 1
    50   24   25 1
    51   24   62 1
    52   24   63 1
    53   25   26 1
    54   25   27 2
    55   27   28 1
    56   28   29 2
    57   28   30 2
    58   31   32 1
    59   31   64 1
    60   32   33 2
    61   32   34 2
    62   32   35 1
    63   35   40 ar
    64   35   36 ar
    65   36   37 ar
    66   36   65 1
    67   37   38 ar
    68   37   66 1
    69   38   39 ar
    70   38   67 1
    71   39   40 ar
    72   39   41 1
    73   40   68 1
@<TRIPOS>MOLECULE
CHEMBL403577__1
   69    73     0     0     0
SMALL
USER_CHARGES

@<TRIPOS>ATOM
      1 C1         -0.0167    1.3781    0.0096 C.ar      1 <0>        -0.1152
      2 C2          1.1709    2.0855    0.0021 C.ar      1 <0>        -0.1147
      3 C3          2.3773    1.4107   -0.0130 C.ar      1 <0>        -0.1153
      4 C4          2.3960    0.0285   -0.0201 C.ar      1 <0>        -0.0973
      5 C5          1.2084   -0.6789   -0.0117 C.ar      1 <0>        -0.1155
      6 C6          0.0021   -0.0041    0.0020 C.ar      1 <0>        -0.1161
      7 C7          3.7112   -0.7071   -0.0376 C.3       1 <0>        -0.0810
      8 C8          4.1714   -0.9633    1.3989 C.3       1 <0>        -0.1308
      9 C9          5.5066   -1.7102    1.3812 C.3       1 <0>         0.0988
     10 H1          5.4309   -2.6176    0.7821 H         1 <0>         0.1347
     11 C10         5.9653   -2.0408    2.8160 C.3       1 <0>         0.0542
     12 N1          7.2394   -1.3211    2.9523 N.pl3     1 <0>        -0.5989
     13 C11         7.5114   -0.6934    1.8675 C.cat     1 <0>         0.5108
     14 N2          6.5827   -0.8408    0.8757 N.pl3     1 <0>        -0.6518
     15 C12         8.7562    0.1391    1.6986 C.3       1 <0>         0.1791
     16 C13         8.4707    1.5777    2.1343 C.3       1 <0>        -0.0834
     17 C14         9.7449    2.3806    2.0822 C.ar      1 <0>        -0.1176
     18 C15        10.5661    2.4467    3.1922 C.ar      1 <0>        -0.1039
     19 C16        11.7350    3.1832    3.1444 C.ar      1 <0>        -0.1091
     20 C17        12.0828    3.8532    1.9864 C.ar      1 <0>        -0.0079
     21 C18        11.2620    3.7864    0.8761 C.ar      1 <0>        -0.0809
     22 C19        10.0954    3.0464    0.9225 C.ar      1 <0>        -0.0578
     23 C20        13.3565    4.6570    1.9346 C.3       1 <0>        -0.5583
     24 C21        14.2115    4.2947    0.6886 C.3       1 <0>        -0.1443
     25 C22        13.8889    5.2702   -0.4030 C.2       1 <0>         0.4308
     26 O1         14.2134    4.9844   -1.6810 O.3       1 <0>        -0.6555
     27 N3         13.3043    6.3758   -0.1217 N.2       1 <0>        -0.9057
     28 S1         13.0280    6.4226    1.5295 S.o2      1 <0>         2.4525
     29 O2         11.6493    6.7313    1.6816 O.2       1 <0>        -0.9735
     30 O3         14.0393    7.2642    2.0664 O.2       1 <0>        -0.9887
     31 N4          9.1647    0.1269    0.2918 N.pl3     1 <0>        -1.1135
     32 S2         10.7726    0.1469   -0.1038 S.o2      1 <0>         2.6617
     33 O4         10.8425    0.1022   -1.5223 O.2       1 <0>        -0.9262
     34 O5         11.3646    1.1920    0.6555 O.2       1 <0>        -0.8806
     35 C23        11.4722   -1.3602    0.4827 C.ar      1 <0>        -0.6583
     36 C24        11.9925   -1.4288    1.7619 C.ar      1 <0>        -0.0389
     37 C25        12.5416   -2.6104    2.2233 C.ar      1 <0>        -0.1064
     38 C26        12.5716   -3.7247    1.4060 C.ar      1 <0>        -0.0960
     39 C27        12.0509   -3.6571    0.1251 C.ar      1 <0>         0.0856
     40 C28        11.4955   -2.4745   -0.3340 C.ar      1 <0>        -0.0580
     41 F1         12.0800   -4.7455   -0.6748 F         1 <0>        -0.1293
     42 H2         -0.9591    1.9053    0.0259 H         1 <0>         0.1251
     43 H3          1.1563    3.1654    0.0076 H         1 <0>         0.1258
     44 H4          3.3051    1.9634   -0.0196 H         1 <0>         0.1205
     45 H5          1.2231   -1.7588   -0.0176 H         1 <0>         0.1215
     46 H6         -0.9258   -0.5567    0.0082 H         1 <0>         0.1247
     47 H7          3.5884   -1.6586   -0.5549 H         1 <0>         0.0824
     48 H8          4.4573   -0.1052   -0.5563 H         1 <0>         0.0717
     49 H9          4.2941   -0.0118    1.9163 H         1 <0>         0.0853
     50 H10         3.4252   -1.5652    1.9176 H         1 <0>         0.1025
     51 H11         5.2400   -1.6760    3.5433 H         1 <0>         0.1331
     52 H12         6.1177   -3.1140    2.9312 H         1 <0>         0.1330
     53 H13         6.6231   -0.4423   -0.0077 H         1 <0>         0.4559
     54 H14         9.5560   -0.2746    2.3128 H         1 <0>         0.1411
     55 H15         7.7342    2.0210    1.4641 H         1 <0>         0.0965
     56 H16         8.0821    1.5785    3.1527 H         1 <0>         0.0970
     57 H17        10.2944    1.9232    4.0969 H         1 <0>         0.1137
     58 H18        12.3762    3.2354    4.0118 H         1 <0>         0.1195
     59 H19        11.5336    4.3102   -0.0285 H         1 <0>         0.1258
     60 H20         9.4560    2.9912    0.0539 H         1 <0>         0.1107
     61 H21        13.9277    4.5564    2.8575 H         1 <0>         0.1383
     62 H22        15.2706    4.3589    0.9380 H         1 <0>         0.1052
     63 H23        13.9726    3.2831    0.3602 H         1 <0>         0.1091
     64 H24         8.4933    0.1071   -0.4080 H         1 <0>         0.4198
     65 H25        11.9702   -0.5584    2.4009 H         1 <0>         0.1537
     66 H26        12.9478   -2.6628    3.2226 H         1 <0>         0.1478
     67 H27        13.0013   -4.6476    1.7665 H         1 <0>         0.1477
     68 H28        11.0850   -2.4219   -1.3315 H         1 <0>         0.1526
     69 H29         7.7945   -1.3209    3.7478 H         1 <0>         0.4624
@<TRIPOS>BOND
     1    1    6 ar
     2    1    2 ar
     3    1   42 1
     4    2    3 ar
     5    2   43 1
     6    3    4 ar
     7    3   44 1
     8    4    5 ar
     9    4    7 1
    10    5    6 ar
    11    5   45 1
    12    6   46 1
    13    7    8 1
    14    7   47 1
    15    7   48 1
    16    8    9 1
    17    8   49 1
    18    8   50 1
    19    9   10 1
    20    9   14 1
    21    9   11 1
    22   11   12 1
    23   11   51 1
    24   11   52 1
    25   12   13 2
    26   12   69 1
    27   13   14 1
    28   13   15 1
    29   14   53 1
    30   15   16 1
    31   15   31 1
    32   15   54 1
    33   16   17 1
    34   16   55 1
    35   16   56 1
    36   17   22 ar
    37   17   18 ar
    38   18   19 ar
    39   18   57 1
    40   19   20 ar
    41   19   58 1
    42   20   21 ar
    43   20   23 1
    44   21   22 ar
    45   21   59 1
    46   22   60 1
    47   23   28 1
    48   23   24 1
    49   23   61 1
    50   24   25 1
    51   24   62 1
    52   24   63 1
    53   25   26 1
    54   25   27 2
    55   27   28 1
    56   28   29 2
    57   28   30 2
    58   31   32 1
    59   31   64 1
    60   32   33 2
    61   32   34 2
    62   32   35 1
    63   35   40 ar
    64   35   36 ar
    65   36   37 ar
    66   36   65 1
    67   37   38 ar
    68   37   66 1
    69   38   39 ar
    70   38   67 1
    71   39   40 ar
    72   39   41 1
    73   40   68 1
@<TRIPOS>MOLECULE
CHEMBL403577__2
   69    73     0     0     0
SMALL
USER_CHARGES

@<TRIPOS>ATOM
      1 C1         -0.0167    1.3781    0.0096 C.ar      1 <0>        -0.1160
      2 C2          1.1709    2.0855    0.0021 C.ar      1 <0>        -0.1156
      3 C3          2.3773    1.4107   -0.0130 C.ar      1 <0>        -0.1160
      4 C4          2.3960    0.0285   -0.0201 C.ar      1 <0>        -0.0960
      5 C5          1.2084   -0.6789   -0.0117 C.ar      1 <0>        -0.1153
      6 C6          0.0021   -0.0041    0.0020 C.ar      1 <0>        -0.1158
      7 C7          3.7112   -0.7071   -0.0376 C.3       1 <0>        -0.0811
      8 C8          4.1714   -0.9633    1.3989 C.3       1 <0>        -0.1299
      9 C9          5.5066   -1.7102    1.3812 C.3       1 <0>         0.1000
     10 H1          5.4309   -2.6176    0.7821 H         1 <0>         0.1355
     11 C10         5.9653   -2.0408    2.8160 C.3       1 <0>         0.0524
     12 N1          7.2394   -1.3211    2.9523 N.pl3     1 <0>        -0.5950
     13 C11         7.5114   -0.6934    1.8675 C.cat     1 <0>         0.5019
     14 N2          6.5827   -0.8408    0.8757 N.pl3     1 <0>        -0.6502
     15 C12         8.7562    0.1391    1.6986 C.3       1 <0>         0.1744
     16 C13         8.4707    1.5777    2.1343 C.3       1 <0>        -0.0723
     17 C14         9.6759    2.4369    1.8511 C.ar      1 <0>        -0.1179
     18 C15        10.6620    2.5818    2.8090 C.ar      1 <0>        -0.1071
     19 C16        11.7675    3.3699    2.5492 C.ar      1 <0>        -0.1106
     20 C17        11.8872    4.0128    1.3313 C.ar      1 <0>        -0.0282
     21 C18        10.9016    3.8672    0.3731 C.ar      1 <0>        -0.0974
     22 C19         9.7981    3.0756    0.6313 C.ar      1 <0>        -0.1004
     23 C20        13.0919    4.8729    1.0484 C.3       1 <0>        -0.5636
     24 C21        12.6823    6.2752    0.5189 C.3       1 <0>        -0.1414
     25 C22        13.6304    6.6595   -0.5768 C.2       1 <0>         0.4290
     26 O1         13.7262    7.9481   -0.9652 O.3       1 <0>        -0.6505
     27 N3         14.3504    5.7636   -1.1444 N.2       1 <0>        -0.9038
     28 S1         14.0115    4.2850   -0.4343 S.o2      1 <0>         2.4485
     29 O2         15.2696    3.7355   -0.0676 O.2       1 <0>        -0.9635
     30 O3         13.1442    3.6129   -1.3372 O.2       1 <0>        -0.9833
     31 N4          9.8312   -0.4169    2.5241 N.pl3     1 <0>        -1.1150
     32 S2         10.9231   -1.4711    1.8615 S.o2      1 <0>         2.6866
     33 O4         11.8421   -1.8051    2.8926 O.2       1 <0>        -0.9303
     34 O5         10.1682   -2.4538    1.1661 O.2       1 <0>        -0.9485
     35 C23        11.8339   -0.5809    0.6440 C.ar      1 <0>        -0.6648
     36 C24        11.3832   -0.5389   -0.6625 C.ar      1 <0>        -0.0436
     37 C25        12.0967    0.1591   -1.6188 C.ar      1 <0>        -0.1013
     38 C26        13.2619    0.8156   -1.2699 C.ar      1 <0>        -0.0500
     39 C27        13.7141    0.7743    0.0379 C.ar      1 <0>         0.0743
     40 C28        12.9952    0.0798    0.9963 C.ar      1 <0>        -0.0506
     41 F1         14.8531    1.4153    0.3799 F         1 <0>        -0.1057
     42 H2         -0.9591    1.9053    0.0259 H         1 <0>         0.1247
     43 H3          1.1563    3.1654    0.0076 H         1 <0>         0.1249
     44 H4          3.3051    1.9634   -0.0196 H         1 <0>         0.1199
     45 H5          1.2231   -1.7588   -0.0176 H         1 <0>         0.1222
     46 H6         -0.9258   -0.5567    0.0082 H         1 <0>         0.1247
     47 H7          3.5884   -1.6586   -0.5549 H         1 <0>         0.0830
     48 H8          4.4573   -0.1052   -0.5563 H         1 <0>         0.0723
     49 H9          4.2941   -0.0118    1.9163 H         1 <0>         0.0837
     50 H10         3.4252   -1.5652    1.9176 H         1 <0>         0.1016
     51 H11         5.2400   -1.6760    3.5433 H         1 <0>         0.1320
     52 H12         6.1177   -3.1140    2.9312 H         1 <0>         0.1330
     53 H13         6.6231   -0.4423   -0.0077 H         1 <0>         0.4580
     54 H14         9.0601    0.1300    0.6519 H         1 <0>         0.1470
     55 H15         7.6130    1.9613    1.5817 H         1 <0>         0.1039
     56 H16         8.2532    1.5975    3.2023 H         1 <0>         0.0973
     57 H17        10.5685    2.0795    3.7605 H         1 <0>         0.1226
     58 H18        12.5376    3.4837    3.2978 H         1 <0>         0.1293
     59 H19        10.9949    4.3698   -0.5783 H         1 <0>         0.1398
     60 H20         9.0299    2.9589   -0.1188 H         1 <0>         0.1257
     61 H21        13.7415    4.9461    1.9207 H         1 <0>         0.1410
     62 H22        11.6652    6.2383    0.1290 H         1 <0>         0.1031
     63 H23        12.7393    7.0044    1.3271 H         1 <0>         0.1083
     64 H24         9.9034   -0.1676    3.4587 H         1 <0>         0.4308
     65 H25        10.4733   -1.0522   -0.9362 H         1 <0>         0.1389
     66 H26        11.7438    0.1912   -2.6390 H         1 <0>         0.1458
     67 H27        13.8196    1.3603   -2.0174 H         1 <0>         0.1550
     68 H28        13.3447    0.0506    2.0178 H         1 <0>         0.1511
     69 H29         7.7945   -1.3209    3.7478 H         1 <0>         0.4585
@<TRIPOS>BOND
     1    1    6 ar
     2    1    2 ar
     3    1   42 1
     4    2    3 ar
     5    2   43 1
     6    3    4 ar
     7    3   44 1
     8    4    5 ar
     9    4    7 1
    10    5    6 ar
    11    5   45 1
    12    6   46 1
    13    7    8 1
    14    7   47 1
    15    7   48 1
    16    8    9 1
    17    8   49 1
    18    8   50 1
    19    9   10 1
    20    9   14 1
    21    9   11 1
    22   11   12 1
    23   11   51 1
    24   11   52 1
    25   12   13 2
    26   12   69 1
    27   13   14 1
    28   13   15 1
    29   14   53 1
    30   15   16 1
    31   15   31 1
    32   15   54 1
    33   16   17 1
    34   16   55 1
    35   16   56 1
    36   17   22 ar
    37   17   18 ar
    38   18   19 ar
    39   18   57 1
    40   19   20 ar
    41   19   58 1
    42   20   21 ar
    43   20   23 1
    44   21   22 ar
    45   21   59 1
    46   22   60 1
    47   23   28 1
    48   23   24 1
    49   23   61 1
    50   24   25 1
    51   24   62 1
    52   24   63 1
    53   25   26 1
    54   25   27 2
    55   27   28 1
    56   28   29 2
    57   28   30 2
    58   31   32 1
    59   31   64 1
    60   32   33 2
    61   32   34 2
    62   32   35 1
    63   35   40 ar
    64   35   36 ar
    65   36   37 ar
    66   36   65 1
    67   37   38 ar
    68   37   66 1
    69   38   39 ar
    70   38   67 1
    71   39   40 ar
    72   39   41 1
    73   40   68 1
@<TRIPOS>MOLECULE
CHEMBL403577__3
   69    73     0     0     0
SMALL
USER_CHARGES

@<TRIPOS>ATOM
      1 C1         -0.0167    1.3781    0.0096 C.ar      1 <0>        -0.1160
      2 C2          1.1709    2.0855    0.0021 C.ar      1 <0>        -0.1152
      3 C3          2.3773    1.4107   -0.0130 C.ar      1 <0>        -0.1156
      4 C4          2.3960    0.0285   -0.0201 C.ar      1 <0>        -0.0964
      5 C5          1.2084   -0.6789   -0.0117 C.ar      1 <0>        -0.1156
      6 C6          0.0021   -0.0041    0.0020 C.ar      1 <0>        -0.1162
      7 C7          3.7112   -0.7071   -0.0376 C.3       1 <0>        -0.0810
      8 C8          4.1714   -0.9633    1.3989 C.3       1 <0>        -0.1303
      9 C9          5.5066   -1.7102    1.3812 C.3       1 <0>         0.1002
     10 H1          5.4309   -2.6176    0.7821 H         1 <0>         0.1354
     11 C10         5.9653   -2.0408    2.8160 C.3       1 <0>         0.0525
     12 N1          7.2394   -1.3211    2.9523 N.pl3     1 <0>        -0.5952
     13 C11         7.5114   -0.6934    1.8675 C.cat     1 <0>         0.5017
     14 N2          6.5827   -0.8408    0.8757 N.pl3     1 <0>        -0.6499
     15 C12         8.7562    0.1391    1.6986 C.3       1 <0>         0.1748
     16 C13         8.4707    1.5777    2.1343 C.3       1 <0>        -0.0726
     17 C14         9.6759    2.4369    1.8511 C.ar      1 <0>        -0.1187
     18 C15        10.6620    2.5818    2.8090 C.ar      1 <0>        -0.1061
     19 C16        11.7675    3.3699    2.5492 C.ar      1 <0>        -0.1109
     20 C17        11.8872    4.0128    1.3313 C.ar      1 <0>        -0.0162
     21 C18        10.9016    3.8672    0.3731 C.ar      1 <0>        -0.1003
     22 C19         9.7981    3.0756    0.6313 C.ar      1 <0>        -0.0963
     23 C20        13.0919    4.8729    1.0484 C.3       1 <0>        -0.5630
     24 C21        13.7508    4.5057   -0.3102 C.3       1 <0>        -0.1418
     25 C22        13.2048    5.4247   -1.3612 C.2       1 <0>         0.4310
     26 O1         13.3318    5.1080   -2.6666 O.3       1 <0>        -0.6545
     27 N3         12.6168    6.5112   -1.0193 N.2       1 <0>        -0.9015
     28 S1         12.6104    6.6053    0.6529 S.o2      1 <0>         2.4545
     29 O2         11.2606    6.8545    1.0203 O.2       1 <0>        -0.9713
     30 O3         13.6503    7.5123    0.9925 O.2       1 <0>        -0.9839
     31 N4          9.8312   -0.4169    2.5241 N.pl3     1 <0>        -1.1138
     32 S2         10.9231   -1.4711    1.8615 S.o2      1 <0>         2.6873
     33 O4         11.8421   -1.8051    2.8926 O.2       1 <0>        -0.9300
     34 O5         10.1682   -2.4538    1.1661 O.2       1 <0>        -0.9471
     35 C23        11.8339   -0.5809    0.6440 C.ar      1 <0>        -0.6579
     36 C24        11.3832   -0.5389   -0.6625 C.ar      1 <0>        -0.0426
     37 C25        12.0967    0.1591   -1.6188 C.ar      1 <0>        -0.0990
     38 C26        13.2619    0.8156   -1.2699 C.ar      1 <0>        -0.0813
     39 C27        13.7141    0.7743    0.0379 C.ar      1 <0>         0.0966
     40 C28        12.9952    0.0798    0.9963 C.ar      1 <0>        -0.0467
     41 F1         14.8531    1.4153    0.3799 F         1 <0>        -0.1229
     42 H2         -0.9591    1.9053    0.0259 H         1 <0>         0.1246
     43 H3          1.1563    3.1654    0.0076 H         1 <0>         0.1253
     44 H4          3.3051    1.9634   -0.0196 H         1 <0>         0.1205
     45 H5          1.2231   -1.7588   -0.0176 H         1 <0>         0.1218
     46 H6         -0.9258   -0.5567    0.0082 H         1 <0>         0.1245
     47 H7          3.5884   -1.6586   -0.5549 H         1 <0>         0.0827
     48 H8          4.4573   -0.1052   -0.5563 H         1 <0>         0.0725
     49 H9          4.2941   -0.0118    1.9163 H         1 <0>         0.0842
     50 H10         3.4252   -1.5652    1.9176 H         1 <0>         0.1016
     51 H11         5.2400   -1.6760    3.5433 H         1 <0>         0.1321
     52 H12         6.1177   -3.1140    2.9312 H         1 <0>         0.1328
     53 H13         6.6231   -0.4423   -0.0077 H         1 <0>         0.4582
     54 H14         9.0601    0.1300    0.6519 H         1 <0>         0.1462
     55 H15         7.6130    1.9613    1.5817 H         1 <0>         0.1049
     56 H16         8.2532    1.5975    3.2023 H         1 <0>         0.0979
     57 H17        10.5685    2.0795    3.7605 H         1 <0>         0.1219
     58 H18        12.5376    3.4837    3.2978 H         1 <0>         0.1279
     59 H19        10.9949    4.3698   -0.5783 H         1 <0>         0.1339
     60 H20         9.0299    2.9589   -0.1188 H         1 <0>         0.1258
     61 H21        13.8099    4.8329    1.8676 H         1 <0>         0.1416
     62 H22        14.8316    4.6285   -0.2398 H         1 <0>         0.1083
     63 H23        13.5148    3.4728   -0.5661 H         1 <0>         0.0993
     64 H24         9.9034   -0.1676    3.4587 H         1 <0>         0.4316
     65 H25        10.4733   -1.0522   -0.9362 H         1 <0>         0.1412
     66 H26        11.7438    0.1912   -2.6390 H         1 <0>         0.1485
     67 H27        13.8196    1.3603   -2.0174 H         1 <0>         0.1553
     68 H28        13.3447    0.0506    2.0178 H         1 <0>         0.1522
     69 H29         7.7945   -1.3209    3.7478 H         1 <0>         0.4584
@<TRIPOS>BOND
     1    1    6 ar
     2    1    2 ar
     3    1   42 1
     4    2    3 ar
     5    2   43 1
     6    3    4 ar
     7    3   44 1
     8    4    5 ar
     9    4    7 1
    10    5    6 ar
    11    5   45 1
    12    6   46 1
    13    7    8 1
    14    7   47 1
    15    7   48 1
    16    8    9 1
    17    8   49 1
    18    8   50 1
    19    9   10 1
    20    9   14 1
    21    9   11 1
    22   11   12 1
    23   11   51 1
    24   11   52 1
    25   12   13 2
    26   12   69 1
    27   13   14 1
    28   13   15 1
    29   14   53 1
    30   15   16 1
    31   15   31 1
    32   15   54 1
    33   16   17 1
    34   16   55 1
    35   16   56 1
    36   17   22 ar
    37   17   18 ar
    38   18   19 ar
    39   18   57 1
    40   19   20 ar
    41   19   58 1
    42   20   21 ar
    43   20   23 1
    44   21   22 ar
    45   21   59 1
    46   22   60 1
    47   23   28 1
    48   23   24 1
    49   23   61 1
    50   24   25 1
    51   24   62 1
    52   24   63 1
    53   25   26 1
    54   25   27 2
    55   27   28 1
    56   28   29 2
    57   28   30 2
    58   31   32 1
    59   31   64 1
    60   32   33 2
    61   32   34 2
    62   32   35 1
    63   35   40 ar
    64   35   36 ar
    65   36   37 ar
    66   36   65 1
    67   37   38 ar
    68   37   66 1
    69   38   39 ar
    70   38   67 1
    71   39   40 ar
    72   39   41 1
    73   40   68 1
@<TRIPOS>MOLECULE
CHEMBL284363
   65    70     0     0     0
SMALL
USER_CHARGES

@<TRIPOS>ATOM
      1 C1          7.4593   -2.7547   -2.4321 C.ar      1 <0>        -0.1154
      2 C2          6.3265   -3.4525   -2.0571 C.ar      1 <0>        -0.1141
      3 C3          5.3696   -2.8436   -1.2668 C.ar      1 <0>        -0.0993
      4 C4          5.5457   -1.5370   -0.8512 C.ar      1 <0>        -0.0920
      5 C5          6.6790   -0.8395   -1.2255 C.ar      1 <0>        -0.1114
      6 C6          7.6352   -1.4479   -2.0169 C.ar      1 <0>        -0.1234
      7 C7          4.5020   -0.8729    0.0094 C.3       1 <0>        -0.0038
      8 C8          4.7666   -1.1943    1.4578 C.2       1 <0>         0.0581
      9 C9          4.3185   -2.2960    2.1037 C.2       1 <0>        -0.1301
     10 C10         4.8187   -2.1846    3.4863 C.ar      1 <0>        -0.1104
     11 C11         4.7084   -2.9764    4.6261 C.ar      1 <0>        -0.0675
     12 C12         5.3138   -2.5734    5.7964 C.ar      1 <0>        -0.1362
     13 C13         6.0289   -1.3854    5.8398 C.ar      1 <0>        -0.0961
     14 C14         6.1449   -0.5934    4.7179 C.ar      1 <0>        -0.1083
     15 C15         5.5419   -0.9828    3.5279 C.ar      1 <0>         0.0523
     16 O1          5.4869   -0.4328    2.2977 O.3       1 <0>        -0.1877
     17 C16         3.4940   -3.3895    1.5377 C.ar      1 <0>        -0.0193
     18 C17         2.1852   -3.1354    1.1267 C.ar      1 <0>        -0.1081
     19 C18         1.4190   -4.1518    0.6007 C.ar      1 <0>        -0.1094
     20 C19         1.9514   -5.4352    0.4790 C.ar      1 <0>        -0.0286
     21 C20         3.2597   -5.6896    0.8902 C.ar      1 <0>        -0.1014
     22 C21         4.0283   -4.6720    1.4105 C.ar      1 <0>        -0.0961
     23 C22         1.1263   -6.5294   -0.0873 C.ar      1 <0>        -0.0425
     24 C23        -0.1798   -6.2750   -0.5037 C.ar      1 <0>        -0.1192
     25 C24        -0.9480   -7.2931   -1.0308 C.ar      1 <0>        -0.1241
     26 C25        -0.4241   -8.5714   -1.1481 C.ar      1 <0>         0.0735
     27 C26         0.8814   -8.8325   -0.7341 C.ar      1 <0>         0.1532
     28 C27         1.6573   -7.8121   -0.2094 C.ar      1 <0>        -0.0983
     29 N1          1.4093  -10.1240   -0.8531 N.am      1 <0>        -0.6745
     30 C28         2.7191  -10.2945   -1.1207 C.2       1 <0>         0.5757
     31 O2          3.4600   -9.3321   -1.1685 O.2       1 <0>        -0.4654
     32 C29         3.2552  -11.6533   -1.3564 C.ar      1 <0>        -0.1029
     33 C30         3.1178  -12.6386   -0.3833 C.ar      1 <0>        -0.1113
     34 C31         3.6208  -13.9069   -0.6075 C.ar      1 <0>        -0.1329
     35 C32         4.2623  -14.2061   -1.7963 C.ar      1 <0>        -0.1188
     36 C33         4.4080  -13.2410   -2.7748 C.ar      1 <0>        -0.0909
     37 C34         3.9025  -11.9590   -2.5690 C.ar      1 <0>        -0.0896
     38 C35         4.0504  -10.9254   -3.6133 C.2       1 <0>         0.5106
     39 O3          4.5829  -11.2041   -4.6781 O.co2     1 <0>        -0.6865
     40 O4          3.6404   -9.7910   -3.4131 O.co2     1 <0>        -0.6536
     41 O5         -1.1846   -9.5717   -1.6671 O.3       1 <0>        -0.4978
     42 H1          8.2090   -3.2318   -3.0457 H         1 <0>         0.1225
     43 H2          6.1889   -4.4733   -2.3818 H         1 <0>         0.1284
     44 H3          4.4842   -3.3886   -0.9745 H         1 <0>         0.1255
     45 H4          6.8164    0.1814   -0.9011 H         1 <0>         0.1199
     46 H5          8.5204   -0.9028   -2.3096 H         1 <0>         0.1207
     47 H6          4.5437    0.2065   -0.1367 H         1 <0>         0.0941
     48 H7          3.5141   -1.2394   -0.2695 H         1 <0>         0.1085
     49 H8          4.1513   -3.9010    4.5933 H         1 <0>         0.1278
     50 H9          5.2310   -3.1844    6.6832 H         1 <0>         0.1293
     51 H10         6.4991   -1.0780    6.7622 H         1 <0>         0.1338
     52 H11         6.7044    0.3292    4.7635 H         1 <0>         0.1304
     53 H12         1.7727   -2.1417    1.2213 H         1 <0>         0.1222
     54 H13         0.4057   -3.9552    0.2829 H         1 <0>         0.1280
     55 H14         3.6716   -6.6835    0.7962 H         1 <0>         0.1326
     56 H15         5.0429   -4.8679    1.7245 H         1 <0>         0.1222
     57 H16        -0.5908   -5.2804   -0.4132 H         1 <0>         0.1268
     58 H17        -1.9596   -7.0937   -1.3523 H         1 <0>         0.1304
     59 H18         2.6701   -8.0110    0.1084 H         1 <0>         0.1500
     60 H19         0.8322  -10.8958   -0.7429 H         1 <0>         0.4091
     61 H20         2.6185  -12.4124    0.5473 H         1 <0>         0.1193
     62 H21         3.5124  -14.6688    0.1503 H         1 <0>         0.1196
     63 H22         4.6519  -15.1999   -1.9605 H         1 <0>         0.1193
     64 H23         4.9102  -13.4814   -3.7002 H         1 <0>         0.1328
     65 H24        -1.1092   -9.6658   -2.6266 H         1 <0>         0.3904
@<TRIPOS>BOND
     1    1    6 ar
     2    1    2 ar
     3    1   42 1
     4    2    3 ar
     5    2   43 1
     6    3    4 ar
     7    3   44 1
     8    4    5 ar
     9    4    7 1
    10    5    6 ar
    11    5   45 1
    12    6   46 1
    13    7    8 1
    14    7   47 1
    15    7   48 1
    16    8   16 1
    17    8    9 2
    18    9   10 1
    19    9   17 1
    20   10   15 ar
    21   10   11 ar
    22   11   12 ar
    23   11   49 1
    24   12   13 ar
    25   12   50 1
    26   13   14 ar
    27   13   51 1
    28   14   15 ar
    29   14   52 1
    30   15   16 1
    31   17   22 ar
    32   17   18 ar
    33   18   19 ar
    34   18   53 1
    35   19   20 ar
    36   19   54 1
    37   20   21 ar
    38   20   23 1
    39   21   22 ar
    40   21   55 1
    41   22   56 1
    42   23   28 ar
    43   23   24 ar
    44   24   25 ar
    45   24   57 1
    46   25   26 ar
    47   25   58 1
    48   26   27 ar
    49   26   41 1
    50   27   28 ar
    51   27   29 1
    52   28   59 1
    53   29   30 am
    54   29   60 1
    55   30   31 2
    56   30   32 1
    57   32   37 ar
    58   32   33 ar
    59   33   34 ar
    60   33   61 1
    61   34   35 ar
    62   34   62 1
    63   35   36 ar
    64   35   63 1
    65   36   37 ar
    66   36   64 1
    67   37   38 1
    68   38   39 2
    69   38   40 1
    70   41   65 1
@<TRIPOS>MOLECULE
CHEMBL371026
   74    76     0     0     0
SMALL
USER_CHARGES

@<TRIPOS>ATOM
      1 C1         -0.0186    1.5256    0.0753 C.3       1 <0>        -0.1541
      2 C2          0.0005   -0.0033    0.0202 C.3       1 <0>        -0.1262
      3 C3         -1.4323   -0.5343    0.0960 C.3       1 <0>        -0.1213
      4 C4         -1.4132   -2.0632    0.0409 C.3       1 <0>        -0.1211
      5 C5         -2.8461   -2.5943    0.1168 C.3       1 <0>        -0.1207
      6 C6         -2.8269   -4.1232    0.0617 C.3       1 <0>        -0.1205
      7 C7         -4.2598   -4.6542    0.1376 C.3       1 <0>        -0.1207
      8 C8         -4.2407   -6.1831    0.0825 C.3       1 <0>        -0.1204
      9 C9         -5.6735   -6.7141    0.1584 C.3       1 <0>        -0.1209
     10 C10        -5.6544   -8.2430    0.1033 C.3       1 <0>        -0.1201
     11 C11        -7.0873   -8.7741    0.1791 C.3       1 <0>        -0.1205
     12 C12        -7.0681  -10.3030    0.1240 C.3       1 <0>        -0.1211
     13 C13        -8.5010  -10.8340    0.1999 C.3       1 <0>        -0.1093
     14 C14        -8.4819  -12.3629    0.1448 C.3       1 <0>        -0.1728
     15 C15        -9.8932  -12.8859    0.2195 C.2       1 <0>         0.4101
     16 O1        -10.8243  -12.1108    0.3083 O.2       1 <0>        -0.4644
     17 C16       -10.1331  -14.2762    0.1864 C.2       1 <0>        -0.1919
     18 C17       -11.3811  -14.9100    0.2403 C.2       1 <0>        -0.0380
     19 C18       -11.2222  -16.2776    0.1833 C.2       1 <0>        -0.1242
     20 C19        -9.8765  -16.6010    0.0904 C.2       1 <0>        -0.1105
     21 C20        -9.1131  -17.8526    0.0007 C.2       1 <0>         0.2482
     22 N1         -7.8062  -17.7863   -0.0764 N.2       1 <0>        -0.2907
     23 O2         -7.1214  -16.5539   -0.0754 O.3       1 <0>        -0.0842
     24 C21        -7.7502  -15.3814    0.0034 C.2       1 <0>         0.1760
     25 C22        -9.1244  -15.3355    0.0825 C.2       1 <0>        -0.2036
     26 C23        -9.8057  -19.1626   -0.0021 C.ar      1 <0>        -0.1324
     27 C24       -11.0995  -19.2680   -0.5123 C.ar      1 <0>        -0.0380
     28 C25       -11.7410  -20.4881   -0.5134 C.ar      1 <0>        -0.1640
     29 C26       -11.1007  -21.6115   -0.0068 C.ar      1 <0>         0.1752
     30 C27        -9.8125  -21.5098    0.5024 C.ar      1 <0>        -0.2241
     31 C28        -9.1630  -20.2939    0.5003 C.ar      1 <0>        -0.0253
     32 O3        -11.7356  -22.8121   -0.0089 O.3       1 <0>        -0.2724
     33 C29       -11.0188  -23.9260    0.5272 C.3       1 <0>        -0.0117
     34 C30       -11.8755  -25.1629    0.4416 C.2       1 <0>         0.5012
     35 O4        -12.9960  -25.0966   -0.0343 O.co2     1 <0>        -0.6693
     36 O5        -11.4481  -26.2299    0.8484 O.co2     1 <0>        -0.6842
     37 H1          1.0022    1.9039    0.0212 H         1 <0>         0.0531
     38 H2         -0.5944    1.9123   -0.7656 H         1 <0>         0.0532
     39 H3         -0.4772    1.8498    1.0094 H         1 <0>         0.0532
     40 H4          0.4592   -0.3275   -0.9140 H         1 <0>         0.0602
     41 H5          0.5763   -0.3900    0.8610 H         1 <0>         0.0602
     42 H6         -1.8910   -0.2101    1.0302 H         1 <0>         0.0605
     43 H7         -2.0081   -0.1476   -0.7448 H         1 <0>         0.0605
     44 H8         -0.9546   -2.3874   -0.8932 H         1 <0>         0.0604
     45 H9         -0.8374   -2.4499    0.8818 H         1 <0>         0.0604
     46 H10        -3.3047   -2.2701    1.0510 H         1 <0>         0.0603
     47 H11        -3.4219   -2.2076   -0.7240 H         1 <0>         0.0603
     48 H12        -2.3683   -4.4473   -0.8724 H         1 <0>         0.0603
     49 H13        -2.2511   -4.5098    0.9026 H         1 <0>         0.0603
     50 H14        -4.7185   -4.3300    1.0717 H         1 <0>         0.0603
     51 H15        -4.8356   -4.2675   -0.7033 H         1 <0>         0.0603
     52 H16        -3.7820   -6.5073   -0.8517 H         1 <0>         0.0602
     53 H17        -3.6649   -6.5698    0.9233 H         1 <0>         0.0602
     54 H18        -6.1322   -6.3899    1.0925 H         1 <0>         0.0605
     55 H19        -6.2493   -6.3274   -0.6825 H         1 <0>         0.0605
     56 H20        -5.1958   -8.5672   -0.8309 H         1 <0>         0.0604
     57 H21        -5.0786   -8.6297    0.9441 H         1 <0>         0.0604
     58 H22        -7.5459   -8.4499    1.1133 H         1 <0>         0.0617
     59 H23        -7.6631   -8.3874   -0.6617 H         1 <0>         0.0617
     60 H24        -6.6095  -10.6271   -0.8101 H         1 <0>         0.0619
     61 H25        -6.4923  -10.6896    0.9649 H         1 <0>         0.0618
     62 H26        -8.9597  -10.5098    1.1341 H         1 <0>         0.0688
     63 H27        -9.0768  -10.4473   -0.6409 H         1 <0>         0.0689
     64 H28        -8.0232  -12.6871   -0.7893 H         1 <0>         0.0934
     65 H29        -7.9061  -12.7496    0.9857 H         1 <0>         0.0931
     66 H30       -12.3304  -14.4006    0.3156 H         1 <0>         0.1458
     67 H31       -12.0294  -16.9947    0.2079 H         1 <0>         0.1454
     68 H32        -7.1804  -14.4639    0.0009 H         1 <0>         0.2031
     69 H33       -11.5982  -18.3946   -0.9058 H         1 <0>         0.1368
     70 H34       -12.7428  -20.5703   -0.9084 H         1 <0>         0.1418
     71 H35        -9.3175  -22.3851    0.8964 H         1 <0>         0.1383
     72 H36        -8.1596  -20.2164    0.8920 H         1 <0>         0.1306
     73 H37       -10.1032  -24.0780   -0.0443 H         1 <0>         0.0642
     74 H38       -10.7681  -23.7292    1.5696 H         1 <0>         0.0642
@<TRIPOS>BOND
     1    1    2 1
     2    1   37 1
     3    1   38 1
     4    1   39 1
     5    2    3 1
     6    2   40 1
     7    2   41 1
     8    3    4 1
     9    3   42 1
    10    3   43 1
    11    4    5 1
    12    4   44 1
    13    4   45 1
    14    5    6 1
    15    5   46 1
    16    5   47 1
    17    6    7 1
    18    6   48 1
    19    6   49 1
    20    7    8 1
    21    7   50 1
    22    7   51 1
    23    8    9 1
    24    8   52 1
    25    8   53 1
    26    9   10 1
    27    9   54 1
    28    9   55 1
    29   10   11 1
    30   10   56 1
    31   10   57 1
    32   11   12 1
    33   11   58 1
    34   11   59 1
    35   12   13 1
    36   12   60 1
    37   12   61 1
    38   13   14 1
    39   13   62 1
    40   13   63 1
    41   14   15 1
    42   14   64 1
    43   14   65 1
    44   15   16 2
    45   15   17 1
    46   17   25 1
    47   17   18 2
    48   18   19 1
    49   18   66 1
    50   19   20 2
    51   19   67 1
    52   20   25 1
    53   20   21 1
    54   21   22 2
    55   21   26 1
    56   22   23 1
    57   23   24 1
    58   24   25 2
    59   24   68 1
    60   26   31 ar
    61   26   27 ar
    62   27   28 ar
    63   27   69 1
    64   28   29 ar
    65   28   70 1
    66   29   30 ar
    67   29   32 1
    68   30   31 ar
    69   30   71 1
    70   31   72 1
    71   32   33 1
    72   33   34 1
    73   33   73 1
    74   33   74 1
    75   34   35 2
    76   34   36 1
@<TRIPOS>MOLECULE
CHEMBL267245
   62    66     0     0     0
SMALL
USER_CHARGES

@<TRIPOS>ATOM
      1 C1          1.2452    3.4877   -0.2154 C.ar      1 <0>        -0.1112
      2 C2          2.5057    3.8079    0.2531 C.ar      1 <0>        -0.1236
      3 C3          3.4731    2.8263    0.3604 C.ar      1 <0>        -0.0923
      4 C4          3.1799    1.5245   -0.0005 C.ar      1 <0>        -0.0900
      5 C5          1.9191    1.2042   -0.4681 C.ar      1 <0>        -0.0922
      6 C6          0.9521    2.1860   -0.5767 C.ar      1 <0>        -0.1216
      7 C7          4.2349    0.4546    0.1155 C.3       1 <0>         0.0999
      8 O1          4.1673   -0.1424    1.4121 O.3       1 <0>        -0.3389
      9 C8          5.0465   -1.1209    1.6790 C.2       1 <0>         0.4599
     10 O2          5.8470   -1.4594    0.8396 O.2       1 <0>        -0.4522
     11 C9          5.0352   -1.7974    3.0255 C.3       1 <0>         0.2637
     12 C10         6.0207   -2.9677    3.0167 C.3       1 <0>        -0.0521
     13 C11         5.5323   -4.0286    2.0643 C.ar      1 <0>        -0.1206
     14 C12         4.5975   -4.9566    2.4839 C.ar      1 <0>        -0.1055
     15 C13         4.1494   -5.9298    1.6103 C.ar      1 <0>        -0.0783
     16 C14         4.6358   -5.9747    0.3171 C.ar      1 <0>        -0.0889
     17 C15         5.5698   -5.0461   -0.1027 C.ar      1 <0>        -0.0941
     18 C16         6.0147   -4.0703    0.7696 C.ar      1 <0>        -0.0973
     19 C17         4.1480   -7.0362   -0.6349 C.3       1 <0>        -0.2338
     20 F1          2.8002   -7.3094   -0.3779 F         1 <0>        -0.2126
     21 F2          4.2892   -6.5829   -1.9509 F         1 <0>        -0.2126
     22 P1          5.1302   -8.5549   -0.4066 P.3       1 <0>         2.1345
     23 O3          6.6154   -8.2842   -0.8256 O.2       1 <0>        -1.1341
     24 O4          5.0826   -8.9862    1.0988 O.3       1 <0>        -1.1321
     25 O5          4.5368   -9.6994   -1.2968 O.3       1 <0>        -1.1401
     26 C18         3.6488   -2.3105    3.3183 C.ar      1 <0>        -0.0984
     27 C19         2.6775   -2.2771    2.3352 C.ar      1 <0>        -0.0835
     28 C20         1.4058   -2.7477    2.6038 C.ar      1 <0>        -0.1110
     29 C21         1.1055   -3.2522    3.8553 C.ar      1 <0>        -0.1001
     30 C22         2.0770   -3.2864    4.8381 C.ar      1 <0>        -0.1157
     31 C23         3.3499   -2.8197    4.5682 C.ar      1 <0>        -0.0882
     32 N1          5.4282   -0.8358    4.0585 N.pl3     1 <0>        -0.3850
     33 C24         4.7255    0.2763    4.4572 C.ar      1 <0>         0.0998
     34 C25         3.5148    0.8433    4.0738 C.ar      1 <0>        -0.0958
     35 C26         3.0781    1.9875    4.6804 C.ar      1 <0>        -0.0772
     36 C27         3.8334    2.5911    5.6777 C.ar      1 <0>        -0.1332
     37 C28         5.0242    2.0549    6.0719 C.ar      1 <0>        -0.0436
     38 C29         5.4943    0.8820    5.4662 C.ar      1 <0>        -0.0193
     39 N2          6.6041    0.1365    5.6381 N.2       1 <0>        -0.2198
     40 N3          6.5930   -0.8720    4.8395 N.2       1 <0>         0.0087
     41 H1          0.4880    4.2537   -0.2950 H         1 <0>         0.1219
     42 H2          2.7348    4.8250    0.5350 H         1 <0>         0.1231
     43 H3          4.4581    3.0766    0.7257 H         1 <0>         0.1216
     44 H4          1.6902    0.1871   -0.7504 H         1 <0>         0.1258
     45 H5         -0.0328    1.9358   -0.9424 H         1 <0>         0.1247
     46 H6          4.0645   -0.3076   -0.6448 H         1 <0>         0.0827
     47 H7          5.2199    0.8984   -0.0292 H         1 <0>         0.0778
     48 H8          7.0009   -2.6149    2.6958 H         1 <0>         0.0969
     49 H9          6.0961   -3.3869    4.0200 H         1 <0>         0.0992
     50 H10         4.2176   -4.9215    3.4942 H         1 <0>         0.1151
     51 H11         3.4197   -6.6552    1.9383 H         1 <0>         0.1275
     52 H12         5.9500   -5.0814   -1.1129 H         1 <0>         0.1254
     53 H13         6.7417   -3.3426    0.4405 H         1 <0>         0.1289
     54 H14         2.9122   -1.8830    1.3575 H         1 <0>         0.1210
     55 H15         0.6468   -2.7210    1.8359 H         1 <0>         0.1258
     56 H16         0.1117   -3.6192    4.0653 H         1 <0>         0.1257
     57 H17         1.8422   -3.6802    5.8159 H         1 <0>         0.1269
     58 H18         4.1099   -2.8499    5.3349 H         1 <0>         0.1202
     59 H19         2.9215    0.3809    3.2988 H         1 <0>         0.1390
     60 H20         2.1377    2.4264    4.3814 H         1 <0>         0.1323
     61 H21         3.4739    3.4954    6.1462 H         1 <0>         0.1321
     62 H22         5.6031    2.5332    6.8481 H         1 <0>         0.1347
@<TRIPOS>BOND
     1    1    6 ar
     2    1    2 ar
     3    1   41 1
     4    2    3 ar
     5    2   42 1
     6    3    4 ar
     7    3   43 1
     8    4    5 ar
     9    4    7 1
    10    5    6 ar
    11    5   44 1
    12    6   45 1
    13    7    8 1
    14    7   46 1
    15    7   47 1
    16    8    9 1
    17    9   10 2
    18    9   11 1
    19   11   12 1
    20   11   26 1
    21   11   32 1
    22   12   13 1
    23   12   48 1
    24   12   49 1
    25   13   18 ar
    26   13   14 ar
    27   14   15 ar
    28   14   50 1
    29   15   16 ar
    30   15   51 1
    31   16   17 ar
    32   16   19 1
    33   17   18 ar
    34   17   52 1
    35   18   53 1
    36   19   20 1
    37   19   21 1
    38   19   22 1
    39   22   23 2
    40   22   24 1
    41   22   25 1
    42   26   31 ar
    43   26   27 ar
    44   27   28 ar
    45   27   54 1
    46   28   29 ar
    47   28   55 1
    48   29   30 ar
    49   29   56 1
    50   30   31 ar
    51   30   57 1
    52   31   58 1
    53   32   40 1
    54   32   33 1
    55   33   38 ar
    56   33   34 ar
    57   34   35 ar
    58   34   59 1
    59   35   36 ar
    60   35   60 1
    61   36   37 ar
    62   36   61 1
    63   37   38 ar
    64   37   62 1
    65   38   39 1
    66   39   40 2
@<TRIPOS>MOLECULE
CHEMBL267245__1
   62    66     0     0     0
SMALL
USER_CHARGES

@<TRIPOS>ATOM
      1 C1         -0.2477    1.6073    2.1402 C.ar      1 <0>        -0.1115
      2 C2          0.9275    2.2907    1.8897 C.ar      1 <0>        -0.1220
      3 C3          2.0317    1.6131    1.4075 C.ar      1 <0>        -0.0929
      4 C4          1.9609    0.2521    1.1763 C.ar      1 <0>        -0.0889
      5 C5          0.7859   -0.4314    1.4277 C.ar      1 <0>        -0.0919
      6 C6         -0.3187    0.2464    1.9085 C.ar      1 <0>        -0.1229
      7 C7          3.1643   -0.4864    0.6497 C.3       1 <0>         0.1001
      8 O1          3.9524   -0.9555    1.7456 O.3       1 <0>        -0.3406
      9 C8          5.0684   -1.6383    1.4453 C.2       1 <0>         0.4559
     10 O2          5.3662   -1.8314    0.2904 O.2       1 <0>        -0.4470
     11 C9          5.9498   -2.1642    2.5488 C.3       1 <0>         0.2635
     12 C10         7.1302   -2.9241    1.9404 C.3       1 <0>        -0.0506
     13 C11         7.9761   -1.9742    1.1321 C.ar      1 <0>        -0.1218
     14 C12         7.7943   -1.8791   -0.2350 C.ar      1 <0>        -0.0845
     15 C13         8.5702   -1.0078   -0.9764 C.ar      1 <0>        -0.0835
     16 C14         9.5276   -0.2314   -0.3508 C.ar      1 <0>        -0.0884
     17 C15         9.7087   -0.3259    1.0164 C.ar      1 <0>        -0.0931
     18 C16         8.9299   -1.1940    1.7584 C.ar      1 <0>        -0.1079
     19 C17        10.3741    0.7177   -1.1592 C.3       1 <0>        -0.2342
     20 F1          9.6135    1.2414   -2.2102 F         1 <0>        -0.2126
     21 F2         10.8175    1.7610   -0.3394 F         1 <0>        -0.2129
     22 P1         11.8116   -0.1761   -1.8361 P.3       1 <0>         2.1350
     23 O3         12.7466   -0.6263   -0.6624 O.2       1 <0>        -1.1344
     24 O4         11.3187   -1.4372   -2.6241 O.3       1 <0>        -1.1321
     25 O5         12.6049    0.7670   -2.8034 O.3       1 <0>        -1.1404
     26 C18         6.4649   -1.0121    3.3725 C.ar      1 <0>        -0.0961
     27 C19         6.2255    0.2880    2.9682 C.ar      1 <0>        -0.0850
     28 C20         6.6980    1.3448    3.7237 C.ar      1 <0>        -0.1104
     29 C21         7.4094    1.1015    4.8837 C.ar      1 <0>        -0.1010
     30 C22         7.6480   -0.1986    5.2885 C.ar      1 <0>        -0.1151
     31 C23         7.1718   -1.2553    4.5352 C.ar      1 <0>        -0.0884
     32 N1          5.1756   -3.0679    3.4034 N.pl3     1 <0>        -0.3852
     33 C24         4.1199   -2.7287    4.2157 C.ar      1 <0>         0.1020
     34 C25         3.4637   -1.5359    4.5004 C.ar      1 <0>        -0.0928
     35 C26         2.4176   -1.5291    5.3798 C.ar      1 <0>        -0.0776
     36 C27         2.0027   -2.7040    5.9937 C.ar      1 <0>        -0.1330
     37 C28         2.6296   -3.8869    5.7315 C.ar      1 <0>        -0.0440
     38 C29         3.7046   -3.9212    4.8333 C.ar      1 <0>        -0.0197
     39 N2          4.5009   -4.9125    4.3859 N.2       1 <0>        -0.2200
     40 N3          5.3620   -4.4506    3.5492 N.2       1 <0>         0.0073
     41 H1         -1.1091    2.1359    2.5211 H         1 <0>         0.1218
     42 H2          0.9828    3.3541    2.0703 H         1 <0>         0.1243
     43 H3          2.9497    2.1472    1.2111 H         1 <0>         0.1253
     44 H4          0.7305   -1.4947    1.2467 H         1 <0>         0.1215
     45 H5         -1.2368   -0.2876    2.1045 H         1 <0>         0.1230
     46 H6          2.8360   -1.3346    0.0490 H         1 <0>         0.0781
     47 H7          3.7620    0.1855    0.0337 H         1 <0>         0.0823
     48 H8          7.7328   -3.3583    2.7381 H         1 <0>         0.0982
     49 H9          6.7567   -3.7181    1.2938 H         1 <0>         0.0957
     50 H10         7.0463   -2.4857   -0.7238 H         1 <0>         0.1289
     51 H11         8.4287   -0.9340   -2.0446 H         1 <0>         0.1274
     52 H12        10.4569    0.2805    1.5051 H         1 <0>         0.1242
     53 H13         9.0688   -1.2651    2.8271 H         1 <0>         0.1135
     54 H14         5.6697    0.4780    2.0619 H         1 <0>         0.1188
     55 H15         6.5116    2.3605    3.4075 H         1 <0>         0.1264
     56 H16         7.7792    1.9272    5.4736 H         1 <0>         0.1259
     57 H17         8.2041   -0.3886    6.1946 H         1 <0>         0.1272
     58 H18         7.3550   -2.2710    4.8534 H         1 <0>         0.1210
     59 H19         3.7801   -0.6177    4.0281 H         1 <0>         0.1375
     60 H20         1.9092   -0.6019    5.5996 H         1 <0>         0.1316
     61 H21         1.1747   -2.6807    6.6867 H         1 <0>         0.1317
     62 H22         2.2985   -4.7941    6.2151 H         1 <0>         0.1343
@<TRIPOS>BOND
     1    1    6 ar
     2    1    2 ar
     3    1   41 1
     4    2    3 ar
     5    2   42 1
     6    3    4 ar
     7    3   43 1
     8    4    5 ar
     9    4    7 1
    10    5    6 ar
    11    5   44 1
    12    6   45 1
    13    7    8 1
    14    7   46 1
    15    7   47 1
    16    8    9 1
    17    9   10 2
    18    9   11 1
    19   11   12 1
    20   11   26 1
    21   11   32 1
    22   12   13 1
    23   12   48 1
    24   12   49 1
    25   13   18 ar
    26   13   14 ar
    27   14   15 ar
    28   14   50 1
    29   15   16 ar
    30   15   51 1
    31   16   17 ar
    32   16   19 1
    33   17   18 ar
    34   17   52 1
    35   18   53 1
    36   19   20 1
    37   19   21 1
    38   19   22 1
    39   22   23 2
    40   22   24 1
    41   22   25 1
    42   26   31 ar
    43   26   27 ar
    44   27   28 ar
    45   27   54 1
    46   28   29 ar
    47   28   55 1
    48   29   30 ar
    49   29   56 1
    50   30   31 ar
    51   30   57 1
    52   31   58 1
    53   32   40 1
    54   32   33 1
    55   33   38 ar
    56   33   34 ar
    57   34   35 ar
    58   34   59 1
    59   35   36 ar
    60   35   60 1
    61   36   37 ar
    62   36   61 1
    63   37   38 ar
    64   37   62 1
    65   38   39 1
    66   39   40 2
@<TRIPOS>MOLECULE
CHEMBL25368
   65    70     0     0     0
SMALL
USER_CHARGES

@<TRIPOS>ATOM
      1 C1          7.3606   -2.1637   -2.4023 C.ar      1 <0>        -0.1176
      2 C2          6.2751   -3.0018   -2.2287 C.ar      1 <0>        -0.1157
      3 C3          5.1844   -2.5768   -1.4934 C.ar      1 <0>        -0.1030
      4 C4          5.1795   -1.3139   -0.9313 C.ar      1 <0>        -0.0849
      5 C5          6.2654   -0.4762   -1.1041 C.ar      1 <0>        -0.1115
      6 C6          7.3555   -0.9006   -1.8406 C.ar      1 <0>        -0.1200
      7 C7          3.9900   -0.8502   -0.1305 C.3       1 <0>        -0.0017
      8 C8          4.2279   -1.1310    1.3308 C.2       1 <0>        -0.0966
      9 C9          3.8313   -2.2052    2.0534 C.2       1 <0>        -0.0714
     10 C10         4.1785   -2.2677    3.4728 C.ar      1 <0>        -0.0708
     11 C11         3.8741   -3.2791    4.4117 C.ar      1 <0>        -0.0726
     12 C12         4.2796   -3.1725    5.7055 C.ar      1 <0>        -0.1212
     13 C13         5.0031   -2.0743    6.1501 C.ar      1 <0>        -0.0970
     14 C14         5.3205   -1.0654    5.2627 C.ar      1 <0>        -0.0786
     15 C15         4.9139   -1.1633    3.9484 C.ar      1 <0>        -0.1145
     16 S1          5.1051   -0.1319    2.5177 S.3       1 <0>         0.0364
     17 C16         3.0589   -3.2974    1.4178 C.ar      1 <0>        -0.0255
     18 C17         1.7615   -3.0609    0.9614 C.ar      1 <0>        -0.1050
     19 C18         1.0439   -4.0766    0.3700 C.ar      1 <0>        -0.1027
     20 C19         1.6134   -5.3419    0.2275 C.ar      1 <0>        -0.0442
     21 C20         2.9100   -5.5788    0.6839 C.ar      1 <0>        -0.1012
     22 C21         3.6306   -4.5620    1.2698 C.ar      1 <0>        -0.0982
     23 C22         0.8402   -6.4354   -0.4090 C.ar      1 <0>        -0.0286
     24 C23        -0.4540   -6.1989   -0.8705 C.ar      1 <0>        -0.0967
     25 C24        -1.1705   -7.2180   -1.4619 C.ar      1 <0>        -0.0890
     26 C25        -0.6044   -8.4784   -1.5979 C.ar      1 <0>         0.0670
     27 C26         0.6839   -8.7172   -1.1389 C.ar      1 <0>        -0.1088
     28 C27         1.4080   -7.7007   -0.5522 C.ar      1 <0>        -0.0926
     29 O1         -1.3130   -9.4805   -2.1810 O.3       1 <0>        -0.6613
     30 S2         -1.1266   -9.5743   -3.6887 S.o2      1 <0>         2.6775
     31 O2         -2.0799  -10.5179   -4.1578 O.2       1 <0>        -0.9336
     32 O3         -1.0723   -8.2402   -4.1750 O.2       1 <0>        -0.9548
     33 C28         0.4626  -10.2795   -3.9743 C.ar      1 <0>        -0.6932
     34 C29         1.5712   -9.4554   -4.0886 C.ar      1 <0>        -0.0463
     35 C30         2.8184   -9.9947   -4.3122 C.ar      1 <0>        -0.0922
     36 C31         2.9687  -11.3810   -4.4244 C.ar      1 <0>        -0.0967
     37 C32         1.8437  -12.2113   -4.3076 C.ar      1 <0>         0.1187
     38 C33         0.5964  -11.6496   -4.0771 C.ar      1 <0>        -0.0620
     39 O4          1.9759  -13.5566   -4.4143 O.3       1 <0>        -0.4683
     40 C34         4.2982  -11.9647   -4.6639 C.2       1 <0>         0.5143
     41 O5          5.2764  -11.2370   -4.7655 O.co2     1 <0>        -0.6803
     42 O6          4.4252  -13.1776   -4.7614 O.co2     1 <0>        -0.6597
     43 H1          8.2146   -2.4974   -2.9730 H         1 <0>         0.1221
     44 H2          6.2789   -3.9884   -2.6679 H         1 <0>         0.1254
     45 H3          4.3360   -3.2313   -1.3584 H         1 <0>         0.1221
     46 H4          6.2614    0.5106   -0.6652 H         1 <0>         0.1189
     47 H5          8.2037   -0.2460   -1.9759 H         1 <0>         0.1212
     48 H6          3.8489    0.2208   -0.2765 H         1 <0>         0.0918
     49 H7          3.0987   -1.3826   -0.4624 H         1 <0>         0.0999
     50 H8          3.3125   -4.1467    4.0982 H         1 <0>         0.1248
     51 H9          4.0328   -3.9595    6.4027 H         1 <0>         0.1273
     52 H10         5.3149   -2.0095    7.1821 H         1 <0>         0.1337
     53 H11         5.8830   -0.2056    5.5953 H         1 <0>         0.1305
     54 H12         1.3202   -2.0814    1.0723 H         1 <0>         0.1256
     55 H13         0.0398   -3.8936    0.0168 H         1 <0>         0.1302
     56 H14         3.3504   -6.5588    0.5740 H         1 <0>         0.1316
     57 H15         4.6362   -4.7442    1.6189 H         1 <0>         0.1249
     58 H16        -0.8950   -5.2188   -0.7647 H         1 <0>         0.1407
     59 H17        -2.1732   -7.0356   -1.8193 H         1 <0>         0.1420
     60 H18         1.1214   -9.6988   -1.2459 H         1 <0>         0.1453
     61 H19         2.4120   -7.8857   -0.2001 H         1 <0>         0.1426
     62 H20         1.4562   -8.3851   -4.0021 H         1 <0>         0.1347
     63 H21         3.6790   -9.3484   -4.4013 H         1 <0>         0.1414
     64 H22        -0.2718  -12.2848   -3.9821 H         1 <0>         0.1403
     65 H23         2.1462  -14.0031   -3.5737 H         1 <0>         0.3867
@<TRIPOS>BOND
     1    1    6 ar
     2    1    2 ar
     3    1   43 1
     4    2    3 ar
     5    2   44 1
     6    3    4 ar
     7    3   45 1
     8    4    5 ar
     9    4    7 1
    10    5    6 ar
    11    5   46 1
    12    6   47 1
    13    7    8 1
    14    7   48 1
    15    7   49 1
    16    8   16 1
    17    8    9 2
    18    9   10 1
    19    9   17 1
    20   10   15 ar
    21   10   11 ar
    22   11   12 ar
    23   11   50 1
    24   12   13 ar
    25   12   51 1
    26   13   14 ar
    27   13   52 1
    28   14   15 ar
    29   14   53 1
    30   15   16 1
    31   17   22 ar
    32   17   18 ar
    33   18   19 ar
    34   18   54 1
    35   19   20 ar
    36   19   55 1
    37   20   21 ar
    38   20   23 1
    39   21   22 ar
    40   21   56 1
    41   22   57 1
    42   23   28 ar
    43   23   24 ar
    44   24   25 ar
    45   24   58 1
    46   25   26 ar
    47   25   59 1
    48   26   27 ar
    49   26   29 1
    50   27   28 ar
    51   27   60 1
    52   28   61 1
    53   29   30 1
    54   30   31 2
    55   30   32 2
    56   30   33 1
    57   33   38 ar
    58   33   34 ar
    59   34   35 ar
    60   34   62 1
    61   35   36 ar
    62   35   63 1
    63   36   37 ar
    64   36   40 1
    65   37   38 ar
    66   37   39 1
    67   38   64 1
    68   39   65 1
    69   40   41 2
    70   40   42 1
@<TRIPOS>MOLECULE
CHEMBL554726
   50    52     0     0     0
SMALL
USER_CHARGES

@<TRIPOS>ATOM
      1 C1          0.1201    1.1566    0.7601 C.ar      1 <0>        -0.1273
      2 C2          1.3064    1.8609    0.7537 C.ar      1 <0>        -0.0956
      3 C3          2.3828    1.4156    0.0014 C.ar      1 <0>        -0.1266
      4 C4          2.2696    0.2596   -0.7440 C.ar      1 <0>        -0.0406
      5 C5          1.0806   -0.4494   -0.7436 C.ar      1 <0>        -0.1443
      6 C6          0.0024   -0.0045    0.0077 C.ar      1 <0>         0.1379
      7 N1         -1.1983   -0.7231    0.0078 N.am      1 <0>        -0.6730
      8 C7         -2.3730   -0.0725    0.1225 C.2       1 <0>         0.5096
      9 O1         -2.3965    1.1401    0.1294 O.2       1 <0>        -0.5204
     10 C8         -3.6574   -0.8517    0.2421 C.3       1 <0>        -0.1387
     11 C9         -4.8341    0.1193    0.3582 C.3       1 <0>        -0.1035
     12 C10        -6.1380   -0.6718    0.4797 C.3       1 <0>        -0.1226
     13 C11        -7.3147    0.2992    0.5958 C.3       1 <0>        -0.0985
     14 C12        -8.6187   -0.4919    0.7173 C.3       1 <0>        -0.0601
     15 H1         -8.7035   -1.1805   -0.1234 H         1 <0>         0.0882
     16 C13        -9.7989    0.4729    0.7020 C.3       1 <0>        -0.1228
     17 C14       -11.1113   -0.2776    0.5055 C.3       1 <0>        -0.0932
     18 S1        -11.5413   -1.1836    2.0166 S.3       1 <0>        -0.2344
     19 C15       -10.1713   -2.3592    2.2188 C.3       1 <0>        -0.0624
     20 S2         -8.6092   -1.4332    2.2675 S.3       1 <0>        -0.2171
     21 C16         3.4231   -0.2612   -1.5632 C.3       1 <0>        -0.0927
     22 C17         4.4589    0.8467   -1.7615 C.3       1 <0>         0.0224
     23 H2          4.0610    1.6034   -2.4376 H         1 <0>         0.0544
     24 O2          4.7399    1.4390   -0.4883 O.3       1 <0>        -0.3442
     25 C18         3.6575    2.2190    0.0185 C.3       1 <0>         0.0926
     26 C19         5.7207    0.2621   -2.3422 C.2       1 <0>         0.5063
     27 O3          5.7089   -0.2244   -3.4600 O.co2     1 <0>        -0.6916
     28 O4          6.7534    0.2757   -1.6941 O.co2     1 <0>        -0.6725
     29 H3         -0.7133    1.5051    1.3520 H         1 <0>         0.1305
     30 H4          1.3972    2.7646    1.3380 H         1 <0>         0.1248
     31 H5          0.9919   -1.3518   -1.3304 H         1 <0>         0.1248
     32 H6         -1.1851   -1.6895   -0.0747 H         1 <0>         0.4095
     33 H7         -3.7873   -1.4760   -0.6419 H         1 <0>         0.0950
     34 H8         -3.6181   -1.4828    1.1300 H         1 <0>         0.0971
     35 H9         -4.7041    0.7436    1.2423 H         1 <0>         0.0720
     36 H10        -4.8733    0.7504   -0.5296 H         1 <0>         0.0709
     37 H11        -6.2679   -1.2961   -0.4043 H         1 <0>         0.0640
     38 H12        -6.0987   -1.3029    1.3676 H         1 <0>         0.0747
     39 H13        -7.1848    0.9234    1.4798 H         1 <0>         0.0771
     40 H14        -7.3540    0.9303   -0.2920 H         1 <0>         0.0817
     41 H15        -9.8329    1.0127    1.6483 H         1 <0>         0.0925
     42 H16        -9.6684    1.1860   -0.1120 H         1 <0>         0.0880
     43 H17       -11.9035    0.4340    0.2727 H         1 <0>         0.1158
     44 H18       -11.0054   -0.9812   -0.3202 H         1 <0>         0.0842
     45 H19       -10.2979   -2.9108    3.1503 H         1 <0>         0.1440
     46 H20       -10.1598   -3.0544    1.3793 H         1 <0>         0.1019
     47 H21         3.8856   -1.1012   -1.0448 H         1 <0>         0.0831
     48 H22         3.0570   -0.5932   -2.5347 H         1 <0>         0.0859
     49 H23         3.5323    3.1077   -0.6000 H         1 <0>         0.0558
     50 H24         3.8792    2.5224    1.0416 H         1 <0>         0.0972
@<TRIPOS>BOND
     1    1    6 ar
     2    1    2 ar
     3    1   29 1
     4    2    3 ar
     5    2   30 1
     6    3   25 1
     7    3    4 ar
     8    4    5 ar
     9    4   21 1
    10    5    6 ar
    11    5   31 1
    12    6    7 1
    13    7    8 am
    14    7   32 1
    15    8    9 2
    16    8   10 1
    17   10   11 1
    18   10   33 1
    19   10   34 1
    20   11   12 1
    21   11   35 1
    22   11   36 1
    23   12   13 1
    24   12   37 1
    25   12   38 1
    26   13   14 1
    27   13   39 1
    28   13   40 1
    29   14   15 1
    30   14   20 1
    31   14   16 1
    32   16   17 1
    33   16   41 1
    34   16   42 1
    35   17   18 1
    36   17   43 1
    37   17   44 1
    38   18   19 1
    39   19   20 1
    40   19   45 1
    41   19   46 1
    42   21   22 1
    43   21   47 1
    44   21   48 1
    45   22   23 1
    46   22   24 1
    47   22   26 1
    48   24   25 1
    49   25   49 1
    50   25   50 1
    51   26   27 2
    52   26   28 1
@<TRIPOS>MOLECULE
CHEMBL1082937
   66    71     0     0     0
SMALL
USER_CHARGES

@<TRIPOS>ATOM
      1 C1         -0.6463    0.7190    0.3946 C.ar      1 <0>        -0.1316
      2 C2          0.4675    1.5323    0.4889 C.ar      1 <0>        -0.1246
      3 C3          1.7332    0.9774    0.4577 C.ar      1 <0>        -0.1016
      4 C4          1.8851   -0.3909    0.3326 C.ar      1 <0>        -0.0482
      5 C5          0.7713   -1.2043    0.2392 C.ar      1 <0>        -0.0971
      6 C6         -0.4943   -0.6493    0.2690 C.ar      1 <0>        -0.1262
      7 C7          3.2650   -0.9957    0.2975 C.3       1 <0>         0.0480
      8 H1          3.9652   -0.3332    0.8063 H         1 <0>         0.0767
      9 C8          3.6969   -1.1790   -1.1346 C.2       1 <0>         0.4894
     10 O1          3.8678   -0.2059   -1.8490 O.co2     1 <0>        -0.6810
     11 O2          3.8755   -2.3003   -1.5788 O.co2     1 <0>        -0.6663
     12 O3          3.2459   -2.2642    0.9553 O.3       1 <0>        -0.2892
     13 C9          4.4268   -2.7214    1.4481 C.ar      1 <0>         0.1772
     14 C10         5.5659   -1.9326    1.3601 C.ar      1 <0>        -0.2062
     15 C11         6.7657   -2.3935    1.8598 C.ar      1 <0>        -0.0604
     16 C12         6.8341   -3.6530    2.4538 C.ar      1 <0>        -0.1143
     17 C13         5.6883   -4.4426    2.5406 C.ar      1 <0>        -0.0672
     18 C14         4.4903   -3.9738    2.0438 C.ar      1 <0>        -0.1627
     19 C15         8.1227   -4.1519    2.9916 C.ar      1 <0>        -0.0108
     20 C16         9.2668   -3.3584    2.9086 C.ar      1 <0>        -0.1125
     21 C17        10.4638   -3.8213    3.4080 C.ar      1 <0>        -0.0681
     22 C18        10.5320   -5.0846    3.9972 C.ar      1 <0>        -0.0324
     23 C19         9.3870   -5.8782    4.0801 C.ar      1 <0>        -0.1025
     24 C20         8.1892   -5.4122    3.5856 C.ar      1 <0>        -0.1230
     25 C21        11.8192   -5.5830    4.5340 C.2       1 <0>        -0.0526
     26 C22        12.9510   -5.8321    3.6417 C.ar      1 <0>        -0.0730
     27 C23        13.0240   -5.6622    2.2406 C.ar      1 <0>        -0.0700
     28 C24        14.1689   -5.9465    1.5638 C.ar      1 <0>        -0.1226
     29 C25        15.3017   -6.4105    2.2184 C.ar      1 <0>        -0.0972
     30 C26        15.2700   -6.5890    3.5871 C.ar      1 <0>        -0.0814
     31 C27        14.1139   -6.3042    4.2832 C.ar      1 <0>        -0.1127
     32 S1         13.6512   -6.3891    5.9938 S.3       1 <0>         0.0212
     33 C28        11.9707   -5.8109    5.8601 C.2       1 <0>        -0.1054
     34 C29        10.9585   -5.6227    6.9606 C.3       1 <0>         0.0078
     35 C30        11.1715   -4.2821    7.6152 C.ar      1 <0>        -0.1183
     36 C31        11.9955   -4.1762    8.7195 C.ar      1 <0>        -0.0792
     37 C32        12.1928   -2.9486    9.3219 C.ar      1 <0>        -0.1556
     38 C33        11.5635   -1.8184    8.8189 C.ar      1 <0>         0.1213
     39 C34        10.7365   -1.9221    7.7114 C.ar      1 <0>        -0.1734
     40 C35        10.5446   -3.1543    7.1052 C.ar      1 <0>         0.1434
     41 O4          9.7391   -3.2581    6.0156 O.3       1 <0>        -0.4745
     42 O5         11.7575   -0.6113    9.4121 O.3       1 <0>        -0.4990
     43 H2         -1.6352    1.1521    0.4235 H         1 <0>         0.1161
     44 H3          0.3488    2.6013    0.5866 H         1 <0>         0.1189
     45 H4          2.6034    1.6129    0.5306 H         1 <0>         0.1209
     46 H5          0.8900   -2.2733    0.1411 H         1 <0>         0.1257
     47 H6         -1.3645   -1.2847    0.1956 H         1 <0>         0.1181
     48 H7          5.5124   -0.9572    0.8995 H         1 <0>         0.1287
     49 H8          7.6516   -1.7796    1.7907 H         1 <0>         0.1217
     50 H9          5.7381   -5.4189    2.9999 H         1 <0>         0.1254
     51 H10         3.6016   -4.5833    2.1145 H         1 <0>         0.1278
     52 H11         9.2141   -2.3809    2.4522 H         1 <0>         0.1210
     53 H12        11.3497   -3.2070    3.3433 H         1 <0>         0.1115
     54 H13         9.4395   -6.8560    4.5357 H         1 <0>         0.1156
     55 H14         7.3020   -6.0243    3.6540 H         1 <0>         0.1226
     56 H15        12.1603   -5.3028    1.7010 H         1 <0>         0.1267
     57 H16        14.1973   -5.8084    0.4930 H         1 <0>         0.1274
     58 H17        16.2004   -6.6305    1.6615 H         1 <0>         0.1328
     59 H18        16.1441   -6.9498    4.1088 H         1 <0>         0.1291
     60 H19         9.9534   -5.6667    6.5412 H         1 <0>         0.1029
     61 H20        11.0775   -6.4123    7.7025 H         1 <0>         0.0884
     62 H21        12.4858   -5.0546    9.1126 H         1 <0>         0.1293
     63 H22        12.8370   -2.8684   10.1850 H         1 <0>         0.1299
     64 H23        10.2459   -1.0438    7.3185 H         1 <0>         0.1349
     65 H24         8.8124   -3.4355    6.2270 H         1 <0>         0.3884
     66 H25        12.5048   -0.1127    9.0542 H         1 <0>         0.3923
@<TRIPOS>BOND
     1    1    6 ar
     2    1    2 ar
     3    1   43 1
     4    2    3 ar
     5    2   44 1
     6    3    4 ar
     7    3   45 1
     8    4    5 ar
     9    4    7 1
    10    5    6 ar
    11    5   46 1
    12    6   47 1
    13    7    8 1
    14    7    9 1
    15    7   12 1
    16    9   10 2
    17    9   11 1
    18   12   13 1
    19   13   18 ar
    20   13   14 ar
    21   14   15 ar
    22   14   48 1
    23   15   16 ar
    24   15   49 1
    25   16   17 ar
    26   16   19 1
    27   17   18 ar
    28   17   50 1
    29   18   51 1
    30   19   24 ar
    31   19   20 ar
    32   20   21 ar
    33   20   52 1
    34   21   22 ar
    35   21   53 1
    36   22   23 ar
    37   22   25 1
    38   23   24 ar
    39   23   54 1
    40   24   55 1
    41   25   33 2
    42   25   26 1
    43   26   31 ar
    44   26   27 ar
    45   27   28 ar
    46   27   56 1
    47   28   29 ar
    48   28   57 1
    49   29   30 ar
    50   29   58 1
    51   30   31 ar
    52   30   59 1
    53   31   32 1
    54   32   33 1
    55   33   34 1
    56   34   35 1
    57   34   60 1
    58   34   61 1
    59   35   40 ar
    60   35   36 ar
    61   36   37 ar
    62   36   62 1
    63   37   38 ar
    64   37   63 1
    65   38   39 ar
    66   38   42 1
    67   39   40 ar
    68   39   64 1
    69   40   41 1
    70   41   65 1
    71   42   66 1
@<TRIPOS>MOLECULE
CHEMBL9321
   65    69     0     0     0
SMALL
USER_CHARGES

@<TRIPOS>ATOM
      1 C1         -0.6325    0.7229    1.0950 C.ar      1 <0>        -0.1318
      2 C2          0.4008    1.6129    1.3212 C.ar      1 <0>        -0.1188
      3 C3          1.6995    1.2586    1.0071 C.ar      1 <0>        -0.1132
      4 C4          1.9650    0.0140    0.4672 C.ar      1 <0>        -0.0696
      5 C5          0.9319   -0.8763    0.2418 C.ar      1 <0>        -0.1191
      6 C6         -0.3670   -0.5214    0.5546 C.ar      1 <0>        -0.1225
      7 C7          3.3807   -0.3719    0.1239 C.3       1 <0>        -0.0828
      8 C8          4.0349   -1.0408    1.3345 C.3       1 <0>        -0.1119
      9 C9          5.4722   -1.4326    0.9859 C.3       1 <0>        -0.1170
     10 C10         6.1601   -2.0048    2.2270 C.3       1 <0>         0.2412
     11 C11         7.5424   -2.5372    1.8441 C.3       1 <0>        -0.0778
     12 C12         8.3996   -1.4003    1.3506 C.ar      1 <0>        -0.1088
     13 C13         8.3465   -1.0206    0.0225 C.ar      1 <0>        -0.1185
     14 C14         9.1329    0.0223   -0.4302 C.ar      1 <0>        -0.0729
     15 C15         9.9720    0.6858    0.4454 C.ar      1 <0>        -0.0924
     16 C16        10.0244    0.3067    1.7737 C.ar      1 <0>        -0.0822
     17 C17         9.2349   -0.7334    2.2272 C.ar      1 <0>        -0.1165
     18 C18        10.8299    1.8221   -0.0483 C.3       1 <0>        -0.2336
     19 F1         10.1440    2.5260   -1.0440 F         1 <0>        -0.2120
     20 F2         11.1207    2.6832    1.0153 F         1 <0>        -0.2121
     21 P1         12.3828    1.1576   -0.7342 P.3       1 <0>         2.1365
     22 O1         13.2217    0.5003    0.4141 O.2       1 <0>        -1.1351
     23 O2         12.0539    0.0803   -1.8231 O.3       1 <0>        -1.1330
     24 O3         13.2073    2.3211   -1.3829 O.3       1 <0>        -1.1400
     25 C19         5.3275   -3.1277    2.7900 C.ar      1 <0>        -0.0839
     26 C20         4.7116   -2.9824    4.0190 C.ar      1 <0>        -0.1029
     27 C21         3.9479   -4.0124    4.5355 C.ar      1 <0>        -0.1159
     28 C22         3.7998   -5.1875    3.8227 C.ar      1 <0>        -0.1198
     29 C23         4.4150   -5.3325    2.5933 C.ar      1 <0>        -0.1158
     30 C24         5.1751   -4.3009    2.0749 C.ar      1 <0>        -0.1021
     31 N1          6.3045   -0.9513    3.2347 N.pl3     1 <0>        -0.3674
     32 C25         6.9533   -1.0515    4.4424 C.ar      1 <0>         0.0990
     33 C26         7.6386   -2.0744    5.0894 C.ar      1 <0>        -0.1176
     34 C27         8.1865   -1.8517    6.3214 C.ar      1 <0>        -0.0732
     35 C28         8.0651   -0.6116    6.9353 C.ar      1 <0>        -0.1378
     36 C29         7.3980    0.4080    6.3218 C.ar      1 <0>        -0.0375
     37 C30         6.8273    0.2059    5.0580 C.ar      1 <0>        -0.0180
     38 N2          6.1266    1.0009    4.2250 N.2       1 <0>        -0.2287
     39 N3          5.8132    0.3603    3.1543 N.2       1 <0>         0.0076
     40 H1         -1.6466    0.9980    1.3445 H         1 <0>         0.1163
     41 H2          0.1933    2.5852    1.7431 H         1 <0>         0.1190
     42 H3          2.5066    1.9542    1.1833 H         1 <0>         0.1242
     43 H4          1.1393   -1.8485   -0.1804 H         1 <0>         0.1188
     44 H5         -1.1742   -1.2169    0.3781 H         1 <0>         0.1169
     45 H6          3.3744   -1.0668   -0.7159 H         1 <0>         0.0711
     46 H7          3.9450    0.5204   -0.1472 H         1 <0>         0.0773
     47 H8          4.0412   -0.3459    2.1742 H         1 <0>         0.0800
     48 H9          3.4706   -1.9331    1.6055 H         1 <0>         0.0597
     49 H10         5.4626   -2.1844    0.1967 H         1 <0>         0.0858
     50 H11         6.0157   -0.5523    0.6426 H         1 <0>         0.0949
     51 H12         8.0106   -2.9932    2.7164 H         1 <0>         0.0803
     52 H13         7.4389   -3.2830    1.0558 H         1 <0>         0.0971
     53 H14         7.6909   -1.5389   -0.6616 H         1 <0>         0.1181
     54 H15         9.0919    0.3186   -1.4680 H         1 <0>         0.1293
     55 H16        10.6802    0.8248    2.4576 H         1 <0>         0.1236
     56 H17         9.2731   -1.0272    3.2658 H         1 <0>         0.1102
     57 H18         4.8273   -2.0643    4.5758 H         1 <0>         0.1169
     58 H19         3.4673   -3.8991    5.4960 H         1 <0>         0.1193
     59 H20         3.2037   -5.9925    4.2266 H         1 <0>         0.1196
     60 H21         4.2995   -6.2507    2.0367 H         1 <0>         0.1241
     61 H22         5.6527   -4.4127    1.1127 H         1 <0>         0.1285
     62 H23         7.7371   -3.0419    4.6197 H         1 <0>         0.1286
     63 H24         8.7183   -2.6471    6.8224 H         1 <0>         0.1334
     64 H25         8.5035   -0.4529    7.9094 H         1 <0>         0.1321
     65 H26         7.3096    1.3679    6.8088 H         1 <0>         0.1332
@<TRIPOS>BOND
     1    1    6 ar
     2    1    2 ar
     3    1   40 1
     4    2    3 ar
     5    2   41 1
     6    3    4 ar
     7    3   42 1
     8    4    5 ar
     9    4    7 1
    10    5    6 ar
    11    5   43 1
    12    6   44 1
    13    7    8 1
    14    7   45 1
    15    7   46 1
    16    8    9 1
    17    8   47 1
    18    8   48 1
    19    9   10 1
    20    9   49 1
    21    9   50 1
    22   10   11 1
    23   10   25 1
    24   10   31 1
    25   11   12 1
    26   11   51 1
    27   11   52 1
    28   12   17 ar
    29   12   13 ar
    30   13   14 ar
    31   13   53 1
    32   14   15 ar
    33   14   54 1
    34   15   16 ar
    35   15   18 1
    36   16   17 ar
    37   16   55 1
    38   17   56 1
    39   18   19 1
    40   18   20 1
    41   18   21 1
    42   21   22 2
    43   21   23 1
    44   21   24 1
    45   25   30 ar
    46   25   26 ar
    47   26   27 ar
    48   26   57 1
    49   27   28 ar
    50   27   58 1
    51   28   29 ar
    52   28   59 1
    53   29   30 ar
    54   29   60 1
    55   30   61 1
    56   31   39 1
    57   31   32 1
    58   32   37 ar
    59   32   33 ar
    60   33   34 ar
    61   33   62 1
    62   34   35 ar
    63   34   63 1
    64   35   36 ar
    65   35   64 1
    66   36   37 ar
    67   36   65 1
    68   37   38 1
    69   38   39 2
@<TRIPOS>MOLECULE
CHEMBL9321__1
   65    69     0     0     0
SMALL
USER_CHARGES

@<TRIPOS>ATOM
      1 C1         -0.3413   -0.2935   -0.4797 C.ar      1 <0>        -0.1296
      2 C2          0.5486    0.7435   -0.2710 C.ar      1 <0>        -0.1182
      3 C3          1.9096    0.5077   -0.3242 C.ar      1 <0>        -0.1155
      4 C4          2.3808   -0.7653   -0.5858 C.ar      1 <0>        -0.0727
      5 C5          1.4910   -1.8025   -0.7936 C.ar      1 <0>        -0.1175
      6 C6          0.1299   -1.5664   -0.7417 C.ar      1 <0>        -0.1201
      7 C7          3.8646   -1.0222   -0.6448 C.3       1 <0>        -0.0840
      8 C8          4.3731   -1.3972    0.7487 C.3       1 <0>        -0.1138
      9 C9          5.8795   -1.6580    0.6887 C.3       1 <0>        -0.1351
     10 C10         6.4079   -1.9221    2.1001 C.3       1 <0>         0.2415
     11 C11         7.8725   -2.3580    2.0231 C.3       1 <0>        -0.0733
     12 C12         8.7073   -1.2221    1.4903 C.ar      1 <0>        -0.1014
     13 C13         8.8438   -1.0452    0.1262 C.ar      1 <0>        -0.1214
     14 C14         9.6096   -0.0033   -0.3625 C.ar      1 <0>        -0.0740
     15 C15        10.2386    0.8620    0.5130 C.ar      1 <0>        -0.0920
     16 C16        10.1014    0.6857    1.8772 C.ar      1 <0>        -0.0827
     17 C17         9.3321   -0.3537    2.3658 C.ar      1 <0>        -0.1072
     18 C18        11.0743    1.9973   -0.0197 C.3       1 <0>        -0.2343
     19 F1         10.5047    2.4804   -1.2027 F         1 <0>        -0.2122
     20 F2         11.1230    3.0252    0.9280 F         1 <0>        -0.2120
     21 P1         12.7637    1.4018   -0.3577 P.3       1 <0>         2.1348
     22 O1         13.4523    0.9926    0.9887 O.2       1 <0>        -1.1345
     23 O2         12.6988    0.1592   -1.3097 O.3       1 <0>        -1.1325
     24 O3         13.5921    2.5416   -1.0426 O.3       1 <0>        -1.1398
     25 C19         6.3012   -0.6623    2.9203 C.ar      1 <0>        -0.0761
     26 C20         6.5542   -0.6986    4.2788 C.ar      1 <0>        -0.0800
     27 C21         6.4563    0.4570    5.0312 C.ar      1 <0>        -0.1209
     28 C22         6.1060    1.6489    4.4249 C.ar      1 <0>        -0.1091
     29 C23         5.8539    1.6853    3.0662 C.ar      1 <0>        -0.1204
     30 C24         5.9560    0.5306    2.3131 C.ar      1 <0>        -0.0939
     31 N1          5.6153   -2.9821    2.7279 N.pl3     1 <0>        -0.3690
     32 C25         5.5367   -4.2956    2.3303 C.ar      1 <0>         0.0919
     33 C26         6.1139   -5.0296    1.2995 C.ar      1 <0>        -0.1168
     34 C27         5.8256   -6.3590    1.1680 C.ar      1 <0>        -0.0743
     35 C28         4.9597   -6.9855    2.0552 C.ar      1 <0>        -0.1369
     36 C29         4.3806   -6.2880    3.0746 C.ar      1 <0>        -0.0419
     37 C30         4.6600   -4.9238    3.2318 C.ar      1 <0>        -0.0199
     38 N2          4.2500   -3.9950    4.1185 N.2       1 <0>        -0.2367
     39 N3          4.7918   -2.8579    3.8568 N.2       1 <0>         0.0056
     40 H1         -1.4046   -0.1102   -0.4337 H         1 <0>         0.1177
     41 H2          0.1805    1.7381   -0.0667 H         1 <0>         0.1197
     42 H3          2.6049    1.3181   -0.1619 H         1 <0>         0.1222
     43 H4          1.8591   -2.7970   -0.9983 H         1 <0>         0.1187
     44 H5         -0.5653   -2.3767   -0.9045 H         1 <0>         0.1184
     45 H6          4.0644   -1.8403   -1.3368 H         1 <0>         0.0737
     46 H7          4.3757   -0.1228   -0.9882 H         1 <0>         0.0771
     47 H8          4.1733   -0.5791    1.4407 H         1 <0>         0.0765
     48 H9          3.8620   -2.2966    1.0921 H         1 <0>         0.0581
     49 H10         6.0731   -2.5270    0.0598 H         1 <0>         0.0776
     50 H11         6.3827   -0.7867    0.2695 H         1 <0>         0.1050
     51 H12         8.2231   -2.6310    3.0184 H         1 <0>         0.0792
     52 H13         7.9613   -3.2172    1.3582 H         1 <0>         0.0829
     53 H14         8.3524   -1.7212   -0.5578 H         1 <0>         0.1170
     54 H15         9.7168    0.1345   -1.4283 H         1 <0>         0.1295
     55 H16        10.5931    1.3615    2.5612 H         1 <0>         0.1251
     56 H17         9.2219   -0.4893    3.4316 H         1 <0>         0.1133
     57 H18         6.8279   -1.6298    4.7525 H         1 <0>         0.1140
     58 H19         6.6533    0.4285    6.0927 H         1 <0>         0.1203
     59 H20         6.0288    2.5515    5.0129 H         1 <0>         0.1192
     60 H21         5.5799    2.6164    2.5926 H         1 <0>         0.1205
     61 H22         5.7627    0.5598    1.2510 H         1 <0>         0.1268
     62 H23         6.7877   -4.5502    0.6048 H         1 <0>         0.1340
     63 H24         6.2747   -6.9274    0.3670 H         1 <0>         0.1354
     64 H25         4.7421   -8.0367    1.9365 H         1 <0>         0.1317
     65 H26         3.7086   -6.7856    3.7581 H         1 <0>         0.1321
@<TRIPOS>BOND
     1    1    6 ar
     2    1    2 ar
     3    1   40 1
     4    2    3 ar
     5    2   41 1
     6    3    4 ar
     7    3   42 1
     8    4    5 ar
     9    4    7 1
    10    5    6 ar
    11    5   43 1
    12    6   44 1
    13    7    8 1
    14    7   45 1
    15    7   46 1
    16    8    9 1
    17    8   47 1
    18    8   48 1
    19    9   10 1
    20    9   49 1
    21    9   50 1
    22   10   11 1
    23   10   25 1
    24   10   31 1
    25   11   12 1
    26   11   51 1
    27   11   52 1
    28   12   17 ar
    29   12   13 ar
    30   13   14 ar
    31   13   53 1
    32   14   15 ar
    33   14   54 1
    34   15   16 ar
    35   15   18 1
    36   16   17 ar
    37   16   55 1
    38   17   56 1
    39   18   19 1
    40   18   20 1
    41   18   21 1
    42   21   22 2
    43   21   23 1
    44   21   24 1
    45   25   30 ar
    46   25   26 ar
    47   26   27 ar
    48   26   57 1
    49   27   28 ar
    50   27   58 1
    51   28   29 ar
    52   28   59 1
    53   29   30 ar
    54   29   60 1
    55   30   61 1
    56   31   39 1
    57   31   32 1
    58   32   37 ar
    59   32   33 ar
    60   33   34 ar
    61   33   62 1
    62   34   35 ar
    63   34   63 1
    64   35   36 ar
    65   35   64 1
    66   36   37 ar
    67   36   65 1
    68   37   38 1
    69   38   39 2
@<TRIPOS>MOLECULE
CHEMBL508831
   95   100     0     0     0
SMALL
USER_CHARGES

@<TRIPOS>ATOM
      1 C1          0.9562    1.5155   -0.0010 C.3       1 <0>        -0.1546
      2 C2          0.8871   -0.0071    0.0396 C.3       1 <0>        -0.0343
      3 C3         -0.5307   -0.4016    0.4923 C.3       1 <0>        -0.1079
      4 C4         -0.7804    0.1269    1.9011 C.3       1 <0>        -0.1377
      5 C5          0.1911   -0.5071    2.8864 C.3       1 <0>         0.1051
      6 H1         -0.0153   -1.5820    2.9517 H         1 <0>         0.0497
      7 C6          1.6505   -0.3108    2.4785 C.3       1 <0>        -0.0401
      8 C7          1.8874   -0.6080    1.0168 C.3       1 <0>        -0.0545
      9 H2          1.7913   -1.7188    0.9026 H         1 <0>         0.0546
     10 C8          3.3069   -0.2725    0.5594 C.3       1 <0>        -0.1125
     11 C9          3.5478   -1.0328   -0.7565 C.3       1 <0>        -0.1107
     12 C10         2.5650   -0.5768   -1.8293 C.3       1 <0>        -0.0247
     13 C11         1.1228   -0.6161   -1.3437 C.3       1 <0>        -0.0543
     14 H3          0.8099   -1.6778   -1.2624 H         1 <0>         0.0577
     15 C12         0.2138    0.0345   -2.3857 C.3       1 <0>        -0.0737
     16 C13         0.4956   -0.5498   -3.7399 C.2       1 <0>        -0.1696
     17 C14         1.5929   -1.1847   -4.0550 C.2       1 <0>        -0.0511
     18 C15         2.6958   -1.4662   -3.0770 C.3       1 <0>         0.0088
     19 C16         4.0733   -1.3178   -3.7092 C.3       1 <0>        -0.0994
     20 C17         4.1353   -1.9480   -5.1024 C.3       1 <0>        -0.0853
     21 C18         3.0881   -1.3267   -6.0208 C.3       1 <0>        -0.1130
     22 C19         1.6948   -1.6678   -5.4930 C.3       1 <0>        -0.0172
     23 H4          0.9479   -1.1234   -6.0891 H         1 <0>         0.0678
     24 C20         1.4313   -3.1630   -5.5800 C.3       1 <0>        -0.0999
     25 C21         1.5776   -3.6666   -7.0174 C.3       1 <0>        -0.0629
     26 C22         2.9707   -3.3309   -7.5437 C.3       1 <0>        -0.1005
     27 C23         3.2509   -1.8375   -7.4508 C.3       1 <0>        -0.0914
     28 C24         0.5029   -3.0478   -7.9104 C.3       1 <0>        -0.1391
     29 C25         1.4040   -5.1924   -7.0206 C.3       1 <0>        -0.1394
     30 C26         3.2514    0.1748   -6.0428 C.2       1 <0>         0.5074
     31 O1          4.2994    0.6686   -6.4228 O.co2     1 <0>        -0.7102
     32 O2          2.3352    0.8931   -5.6805 O.co2     1 <0>        -0.6810
     33 C27         2.5498   -2.9244   -2.6214 C.3       1 <0>        -0.1514
     34 C28         2.9391    0.8525   -2.2533 C.3       1 <0>        -0.1533
     35 C29         2.1220    1.0851    2.8846 C.3       1 <0>        -0.1333
     36 C30         2.4731   -1.3244    3.3142 C.3       1 <0>        -0.1470
     37 O3         -0.0111    0.0663    4.1840 O.3       1 <0>        -0.3679
     38 C31        -0.9728   -0.6265    4.9822 C.3       1 <0>         0.1107
     39 C32        -1.1045    0.0590    6.3178 C.ar      1 <0>        -0.1013
     40 C33        -0.2902   -0.3212    7.3701 C.ar      1 <0>        -0.1171
     41 C34        -0.4054    0.3014    8.5954 C.ar      1 <0>        -0.0902
     42 C35        -1.3469    1.3185    8.7725 C.ar      1 <0>        -0.1285
     43 C36        -2.1653    1.6973    7.7054 C.ar      1 <0>        -0.0900
     44 C37        -2.0352    1.0694    6.4843 C.ar      1 <0>        -0.1166
     45 C38        -1.4765    1.9889   10.0804 C.2       1 <0>         0.5199
     46 O4         -0.7589    1.6547   11.0126 O.co2     1 <0>        -0.6893
     47 O5         -2.3014    2.8788   10.2322 O.co2     1 <0>        -0.6888
     48 H5          1.9913    1.8288   -0.1370 H         1 <0>         0.0639
     49 H6          0.3528    1.8846   -0.8304 H         1 <0>         0.0573
     50 H7          0.5737    1.9216    0.9355 H         1 <0>         0.0588
     51 H8         -1.2560    0.0288   -0.1967 H         1 <0>         0.0666
     52 H9         -0.6148   -1.4876    0.4842 H         1 <0>         0.0570
     53 H10        -0.7123    1.2100    1.9371 H         1 <0>         0.0771
     54 H11        -1.8063   -0.1454    2.1954 H         1 <0>         0.0521
     55 H12         3.4487    0.7868    0.4122 H         1 <0>         0.0696
     56 H13         4.0342   -0.6346    1.2907 H         1 <0>         0.0558
     57 H14         4.5692   -0.8344   -1.0877 H         1 <0>         0.0580
     58 H15         3.4480   -2.0911   -0.5279 H         1 <0>         0.0607
     59 H16        -0.8320   -0.1791   -2.1305 H         1 <0>         0.0515
     60 H17         0.3387    1.1107   -2.4335 H         1 <0>         0.0743
     61 H18        -0.2583   -0.4420   -4.5082 H         1 <0>         0.0889
     62 H19         4.4211   -0.2949   -3.7671 H         1 <0>         0.0746
     63 H20         4.7987   -1.8590   -3.0719 H         1 <0>         0.0375
     64 H21         5.1294   -1.7669   -5.5255 H         1 <0>         0.0507
     65 H22         3.9812   -3.0227   -5.0329 H         1 <0>         0.0444
     66 H23         2.1485   -3.7152   -4.9688 H         1 <0>         0.0626
     67 H24         0.4227   -3.3839   -5.2239 H         1 <0>         0.0495
     68 H25         3.7186   -3.8806   -6.9663 H         1 <0>         0.0546
     69 H26         3.0441   -3.6480   -8.5894 H         1 <0>         0.0466
     70 H27         2.5785   -1.2849   -8.1095 H         1 <0>         0.0498
     71 H28         4.2789   -1.6433   -7.7779 H         1 <0>         0.0563
     72 H29         0.6044   -1.9626   -7.9023 H         1 <0>         0.0623
     73 H30         0.6208   -3.4162   -8.9294 H         1 <0>         0.0455
     74 H31        -0.4832   -3.3233   -7.5363 H         1 <0>         0.0479
     75 H32         0.4160   -5.4465   -6.6367 H         1 <0>         0.0492
     76 H33         1.5055   -5.5676   -8.0390 H         1 <0>         0.0476
     77 H34         2.1672   -5.6463   -6.3885 H         1 <0>         0.0497
     78 H35         1.5339   -3.0935   -2.2643 H         1 <0>         0.0500
     79 H36         2.7555   -3.5895   -3.4601 H         1 <0>         0.0562
     80 H37         3.2563   -3.1260   -1.8162 H         1 <0>         0.0540
     81 H38         3.9277    0.8483   -2.7124 H         1 <0>         0.0523
     82 H39         2.2067    1.2220   -2.9711 H         1 <0>         0.0758
     83 H40         2.9481    1.5009   -1.3772 H         1 <0>         0.0484
     84 H41         2.1470    1.1581    3.9719 H         1 <0>         0.0604
     85 H42         3.1209    1.2615    2.4856 H         1 <0>         0.0502
     86 H43         1.4345    1.8311    2.4861 H         1 <0>         0.0573
     87 H44         2.1364   -2.3369    3.0914 H         1 <0>         0.0456
     88 H45         3.5296   -1.2294    3.0634 H         1 <0>         0.0548
     89 H46         2.3317   -1.1198    4.3754 H         1 <0>         0.0595
     90 H47        -1.9374   -0.6217    4.4746 H         1 <0>         0.0490
     91 H48        -0.6464   -1.6556    5.1326 H         1 <0>         0.0486
     92 H49         0.4371   -1.1076    7.2317 H         1 <0>         0.1125
     93 H50         0.2302    0.0032    9.4160 H         1 <0>         0.1250
     94 H51        -2.8951    2.4827    7.8352 H         1 <0>         0.1253
     95 H52        -2.6641    1.3642    5.6573 H         1 <0>         0.1131
@<TRIPOS>BOND
     1    1    2 1
     2    1   48 1
     3    1   49 1
     4    1   50 1
     5    2    8 1
     6    2   13 1
     7    2    3 1
     8    3    4 1
     9    3   51 1
    10    3   52 1
    11    4    5 1
    12    4   53 1
    13    4   54 1
    14    5    6 1
    15    5    7 1
    16    5   37 1
    17    7    8 1
    18    7   35 1
    19    7   36 1
    20    8    9 1
    21    8   10 1
    22   10   11 1
    23   10   55 1
    24   10   56 1
    25   11   12 1
    26   11   57 1
    27   11   58 1
    28   12   18 1
    29   12   13 1
    30   12   34 1
    31   13   14 1
    32   13   15 1
    33   15   16 1
    34   15   59 1
    35   15   60 1
    36   16   17 2
    37   16   61 1
    38   17   22 1
    39   17   18 1
    40   18   19 1
    41   18   33 1
    42   19   20 1
    43   19   62 1
    44   19   63 1
    45   20   21 1
    46   20   64 1
    47   20   65 1
    48   21   27 1
    49   21   22 1
    50   21   30 1
    51   22   23 1
    52   22   24 1
    53   24   25 1
    54   24   66 1
    55   24   67 1
    56   25   26 1
    57   25   28 1
    58   25   29 1
    59   26   27 1
    60   26   68 1
    61   26   69 1
    62   27   70 1
    63   27   71 1
    64   28   72 1
    65   28   73 1
    66   28   74 1
    67   29   75 1
    68   29   76 1
    69   29   77 1
    70   30   31 2
    71   30   32 1
    72   33   78 1
    73   33   79 1
    74   33   80 1
    75   34   81 1
    76   34   82 1
    77   34   83 1
    78   35   84 1
    79   35   85 1
    80   35   86 1
    81   36   87 1
    82   36   88 1
    83   36   89 1
    84   37   38 1
    85   38   39 1
    86   38   90 1
    87   38   91 1
    88   39   44 ar
    89   39   40 ar
    90   40   41 ar
    91   40   92 1
    92   41   42 ar
    93   41   93 1
    94   42   43 ar
    95   42   45 1
    96   43   44 ar
    97   43   94 1
    98   44   95 1
    99   45   46 2
   100   45   47 1
@<TRIPOS>MOLECULE
CHEMBL383882
   44    46     0     0     0
SMALL
USER_CHARGES

@<TRIPOS>ATOM
      1 C1         -0.0158    1.3916    0.0621 C.ar      1 <0>        -0.0481
      2 C2          1.1685    2.0949    0.0544 C.ar      1 <0>        -0.1834
      3 C3          2.3813    1.4171   -0.0131 C.ar      1 <0>         0.2848
      4 C4          2.4026    0.0275   -0.0730 C.ar      1 <0>        -0.2629
      5 C5          1.2219   -0.6818   -0.0656 C.ar      1 <0>        -0.0213
      6 C6          0.0021   -0.0041    0.0020 C.ar      1 <0>        -0.1116
      7 C7         -1.2656   -0.7613    0.0105 C.2       1 <0>        -0.0575
      8 C8         -1.6634   -1.7979   -0.8181 C.2       1 <0>        -0.1523
      9 C9         -2.8987   -2.3597   -0.6254 C.2       1 <0>         0.1157
     10 C10        -3.7024   -1.8590    0.4018 C.2       1 <0>        -0.1734
     11 S1         -2.6706   -0.5784    1.0960 S.3       1 <0>         0.1022
     12 C11        -4.9930   -2.2640    0.7925 C.2       1 <0>         0.4957
     13 O1         -5.6049   -3.2558    0.1452 O.co2     1 <0>        -0.6506
     14 O2         -5.6031   -1.6556    1.8098 O.co2     1 <0>        -0.7218
     15 O3         -3.3306   -3.3771   -1.4133 O.3       1 <0>        -0.2703
     16 C12        -3.0280   -4.7053   -0.9818 C.3       1 <0>         0.0226
     17 C13        -3.5823   -5.6945   -1.9743 C.2       1 <0>         0.5143
     18 O4         -4.1810   -5.2988   -2.9600 O.co2     1 <0>        -0.6750
     19 O5         -3.4321   -6.8906   -1.7918 O.co2     1 <0>        -0.7144
     20 Br1        -0.5235   -2.4256   -2.1901 Br        1 <0>        -0.0437
     21 N1          3.5783    2.1321   -0.0211 N.2       1 <0>        -1.0843
     22 S2          5.0232    1.3270   -0.1014 S.o2      1 <0>         2.5874
     23 O6          5.1487    0.5962    1.1108 O.2       1 <0>        -1.0230
     24 O7          5.0692    0.7013   -1.3764 O.2       1 <0>        -1.0212
     25 C14         6.2984    2.5429   -0.0907 C.ar      1 <0>        -0.5793
     26 C15         6.7564    3.0745   -1.2817 C.ar      1 <0>        -0.0250
     27 C16         7.7569    4.0284   -1.2734 C.ar      1 <0>        -0.0976
     28 C17         8.2989    4.4510   -0.0741 C.ar      1 <0>        -0.1578
     29 C18         7.8402    3.9201    1.1170 C.ar      1 <0>        -0.0980
     30 C19         6.8368    2.9693    1.1089 C.ar      1 <0>        -0.0254
     31 C20         9.3903    5.4902   -0.0650 C.3       1 <0>         0.5097
     32 F1          8.8195    6.7652    0.0124 F         1 <0>        -0.1762
     33 F2         10.2218    5.2836    1.0409 F         1 <0>        -0.1784
     34 F3         10.1426    5.3866   -1.2400 F         1 <0>        -0.1783
     35 H1         -0.9569    1.9182    0.1189 H         1 <0>         0.1127
     36 H2          1.1554    3.1739    0.1004 H         1 <0>         0.1144
     37 H3          3.3459   -0.4958   -0.1256 H         1 <0>         0.0986
     38 H4          1.2390   -1.7606   -0.1125 H         1 <0>         0.1122
     39 H5         -1.9471   -4.8273   -0.9122 H         1 <0>         0.0349
     40 H6         -3.4772   -4.8809   -0.0043 H         1 <0>         0.0489
     41 H7          6.3329    2.7443   -2.2188 H         1 <0>         0.1504
     42 H8          8.1152    4.4432   -2.2040 H         1 <0>         0.1381
     43 H9          8.2640    4.2500    2.0540 H         1 <0>         0.1379
     44 H10         6.4759    2.5572    2.0396 H         1 <0>         0.1501
@<TRIPOS>BOND
     1    1    6 ar
     2    1    2 ar
     3    1   35 1
     4    2    3 ar
     5    2   36 1
     6    3    4 ar
     7    3   21 1
     8    4    5 ar
     9    4   37 1
    10    5    6 ar
    11    5   38 1
    12    6    7 1
    13    7   11 1
    14    7    8 2
    15    8    9 1
    16    8   20 1
    17    9   10 2
    18    9   15 1
    19   10   11 1
    20   10   12 1
    21   12   13 2
    22   12   14 1
    23   15   16 1
    24   16   17 1
    25   16   39 1
    26   16   40 1
    27   17   18 2
    28   17   19 1
    29   21   22 1
    30   22   23 2
    31   22   24 2
    32   22   25 1
    33   25   30 ar
    34   25   26 ar
    35   26   27 ar
    36   26   41 1
    37   27   28 ar
    38   27   42 1
    39   28   29 ar
    40   28   31 1
    41   29   30 ar
    42   29   43 1
    43   30   44 1
    44   31   32 1
    45   31   33 1
    46   31   34 1
@<TRIPOS>MOLECULE
CHEMBL383882__1
   45    47     0     0     0
SMALL
USER_CHARGES

@<TRIPOS>ATOM
      1 C1          0.0219    1.4830   -0.5959 C.ar      1 <0>        -0.0837
      2 C2          1.2140    2.1595   -0.4602 C.ar      1 <0>        -0.1219
      3 C3          2.3867    1.4594   -0.1965 C.ar      1 <0>         0.1241
      4 C4          2.3597    0.0745   -0.0690 C.ar      1 <0>        -0.1485
      5 C5          1.1709   -0.6080   -0.2036 C.ar      1 <0>        -0.0689
      6 C6         -0.0086    0.0921   -0.4684 C.ar      1 <0>         0.0176
      7 C7         -1.2849   -0.6363   -0.6128 C.2       1 <0>        -0.1478
      8 C8         -1.5589   -1.7676   -1.3643 C.2       1 <0>        -0.1082
      9 C9         -2.8307   -2.2783   -1.3483 C.2       1 <0>         0.0980
     10 C10        -3.7956   -1.6318   -0.5718 C.2       1 <0>        -0.1344
     11 S1         -2.8639   -0.2872    0.1426 S.3       1 <0>         0.1418
     12 C11        -5.1532   -1.9598   -0.3941 C.2       1 <0>         0.4850
     13 O1         -5.6701   -3.0191   -1.0171 O.co2     1 <0>        -0.6330
     14 O2         -5.9218   -1.2112    0.3971 O.co2     1 <0>        -0.7096
     15 O3         -3.1451   -3.3845   -2.0692 O.3       1 <0>        -0.2663
     16 C12        -2.9878   -4.6480   -1.4206 C.3       1 <0>         0.0203
     17 C13        -3.3815   -5.7517   -2.3682 C.2       1 <0>         0.5127
     18 O4         -3.7616   -5.4813   -3.4946 O.co2     1 <0>        -0.6721
     19 O5         -3.3199   -6.9150   -2.0084 O.co2     1 <0>        -0.7080
     20 Br1        -0.2033   -2.5914   -2.3936 Br        1 <0>        -0.0329
     21 N1          3.5918    2.1472   -0.0602 N.pl3     1 <0>        -1.0482
     22 S2          4.6072    1.7966    1.2001 S.o2      1 <0>         2.6900
     23 O6          4.8093    0.3902    1.1798 O.2       1 <0>        -0.9375
     24 O7          5.6830    2.7220    1.1244 O.2       1 <0>        -0.9522
     25 C14         3.7353    2.1586    2.6879 C.ar      1 <0>        -0.6494
     26 C15         3.8781    3.3951    3.2893 C.ar      1 <0>        -0.0208
     27 C16         3.1941    3.6791    4.4564 C.ar      1 <0>        -0.0943
     28 C17         2.3669    2.7268    5.0220 C.ar      1 <0>        -0.1278
     29 C18         2.2234    1.4907    4.4201 C.ar      1 <0>        -0.0865
     30 C19         2.9041    1.2082    3.2506 C.ar      1 <0>        -0.0101
     31 C20         1.6219    3.0361    6.2949 C.3       1 <0>         0.5054
     32 F1          0.3773    3.5936    5.9832 F         1 <0>        -0.1687
     33 F2          1.4352    1.8569    7.0242 F         1 <0>        -0.1711
     34 F3          2.3617    3.9449    7.0592 F         1 <0>        -0.1756
     35 H1         -0.8890    2.0276   -0.7962 H         1 <0>         0.1347
     36 H2          1.2383    3.2347   -0.5589 H         1 <0>         0.1302
     37 H3          3.2720   -0.4662    0.1353 H         1 <0>         0.1578
     38 H4          1.1507   -1.6833   -0.1049 H         1 <0>         0.1389
     39 H5         -1.9467   -4.7774   -1.1247 H         1 <0>         0.0357
     40 H6         -3.6240   -4.6842   -0.5363 H         1 <0>         0.0517
     41 H7          3.8354    2.8310   -0.7035 H         1 <0>         0.4272
     42 H8          4.5244    4.1391    2.8474 H         1 <0>         0.1530
     43 H9          3.3062    4.6449    4.9267 H         1 <0>         0.1462
     44 H10         1.5774    0.7466    4.8621 H         1 <0>         0.1511
     45 H11         2.7891    0.2438    2.7783 H         1 <0>         0.1561
@<TRIPOS>BOND
     1    1    6 ar
     2    1    2 ar
     3    1   35 1
     4    2    3 ar
     5    2   36 1
     6    3    4 ar
     7    3   21 1
     8    4    5 ar
     9    4   37 1
    10    5    6 ar
    11    5   38 1
    12    6    7 1
    13    7   11 1
    14    7    8 2
    15    8    9 1
    16    8   20 1
    17    9   10 2
    18    9   15 1
    19   10   11 1
    20   10   12 1
    21   12   13 2
    22   12   14 1
    23   15   16 1
    24   16   17 1
    25   16   39 1
    26   16   40 1
    27   17   18 2
    28   17   19 1
    29   21   22 1
    30   21   41 1
    31   22   23 2
    32   22   24 2
    33   22   25 1
    34   25   30 ar
    35   25   26 ar
    36   26   27 ar
    37   26   42 1
    38   27   28 ar
    39   27   43 1
    40   28   29 ar
    41   28   31 1
    42   29   30 ar
    43   29   44 1
    44   30   45 1
    45   31   32 1
    46   31   33 1
    47   31   34 1
@<TRIPOS>MOLECULE
CHEMBL9339
   59    63     0     0     0
SMALL
USER_CHARGES

@<TRIPOS>ATOM
      1 C1         -0.7508    0.3646   -1.1775 C.ar      1 <0>        -0.1118
      2 C2         -0.4926   -0.0151    0.1264 C.ar      1 <0>        -0.1154
      3 C3          0.7872   -0.3810    0.4992 C.ar      1 <0>        -0.1060
      4 C4          1.8088   -0.3677   -0.4320 C.ar      1 <0>        -0.0880
      5 C5          1.5504    0.0111   -1.7361 C.ar      1 <0>        -0.0909
      6 C6          0.2709    0.3784   -2.1086 C.ar      1 <0>        -0.1106
      7 C7          3.2042   -0.7657   -0.0254 C.3       1 <0>         0.2466
      8 C8          3.2324   -2.2591    0.3063 C.3       1 <0>        -0.0652
      9 C9          2.6756   -3.0421   -0.8546 C.ar      1 <0>        -0.1146
     10 C10         1.3085   -3.1894   -0.9967 C.ar      1 <0>        -0.1113
     11 C11         0.7976   -3.9076   -2.0617 C.ar      1 <0>        -0.0802
     12 C12         1.6539   -4.4783   -2.9847 C.ar      1 <0>        -0.0925
     13 C13         3.0210   -4.3302   -2.8431 C.ar      1 <0>        -0.0915
     14 C14         3.5317   -3.6084   -1.7806 C.ar      1 <0>        -0.0958
     15 C15         1.0971   -5.2621   -4.1451 C.3       1 <0>        -0.2347
     16 F1         -0.1075   -4.6857   -4.5621 F         1 <0>        -0.2143
     17 F2          2.0132   -5.2444   -5.2023 F         1 <0>        -0.2130
     18 P1          0.7994   -6.9847   -3.6278 P.3       1 <0>         2.1390
     19 O1          2.1650   -7.6685   -3.2786 O.2       1 <0>        -1.1352
     20 O2         -0.1291   -6.9979   -2.3660 O.3       1 <0>        -1.1344
     21 O3          0.1064   -7.7679   -4.7943 O.3       1 <0>        -1.1421
     22 C16         3.6254    0.0383    1.2063 C.3       1 <0>        -0.0890
     23 C17         5.0582   -0.2799    1.5481 C.ar      1 <0>        -0.0665
     24 C18         5.3526   -1.3697    2.3461 C.ar      1 <0>        -0.1027
     25 C19         6.6666   -1.6622    2.6595 C.ar      1 <0>        -0.0864
     26 C20         7.6872   -0.8644    2.1745 C.ar      1 <0>        -0.0876
     27 C21         7.3922    0.2260    1.3760 C.ar      1 <0>        -0.0878
     28 C22         6.0782    0.5147    1.0589 C.ar      1 <0>        -0.1034
     29 Br1         9.4851   -1.2637    2.6034 Br        1 <0>        -0.0568
     30 N1          4.1305   -0.4926   -1.1270 N.pl3     1 <0>        -0.3704
     31 C23         4.4329    0.7371   -1.6618 C.ar      1 <0>         0.0903
     32 C24         4.0203    2.0371   -1.3899 C.ar      1 <0>        -0.1194
     33 C25         4.5210    3.0762   -2.1230 C.ar      1 <0>        -0.0781
     34 C26         5.4396    2.8460   -3.1393 C.ar      1 <0>        -0.1425
     35 C27         5.8603    1.5804   -3.4257 C.ar      1 <0>        -0.0355
     36 C28         5.3626    0.4975   -2.6886 C.ar      1 <0>        -0.0167
     37 N2          5.5842   -0.8311   -2.7381 N.2       1 <0>        -0.2310
     38 N3          4.8881   -1.4339   -1.8398 N.2       1 <0>         0.0342
     39 H1         -1.7516    0.6462   -1.4698 H         1 <0>         0.1214
     40 H2         -1.2907   -0.0254    0.8539 H         1 <0>         0.1247
     41 H3          0.9891   -0.6769    1.5180 H         1 <0>         0.1247
     42 H4          2.3486    0.0218   -2.4635 H         1 <0>         0.1131
     43 H5          0.0691    0.6747   -3.1273 H         1 <0>         0.1194
     44 H6          4.2600   -2.5701    0.4948 H         1 <0>         0.0889
     45 H7          2.6278   -2.4456    1.1938 H         1 <0>         0.0917
     46 H8          0.6395   -2.7436   -0.2756 H         1 <0>         0.1125
     47 H9         -0.2704   -4.0233   -2.1723 H         1 <0>         0.1232
     48 H10         3.6900   -4.7763   -3.5641 H         1 <0>         0.1225
     49 H11         4.5996   -3.4895   -1.6720 H         1 <0>         0.1290
     50 H12         3.5303    1.1034    0.9949 H         1 <0>         0.0871
     51 H13         2.9843   -0.2238    2.0480 H         1 <0>         0.1051
     52 H14         4.5557   -1.9924    2.7250 H         1 <0>         0.1369
     53 H15         6.8964   -2.5134    3.2832 H         1 <0>         0.1347
     54 H16         8.1887    0.8492    0.9971 H         1 <0>         0.1289
     55 H17         5.8480    1.3635    0.4321 H         1 <0>         0.1267
     56 H18         3.3059    2.2250   -0.6020 H         1 <0>         0.1269
     57 H19         4.1995    4.0851   -1.9105 H         1 <0>         0.1307
     58 H20         5.8247    3.6785   -3.7094 H         1 <0>         0.1302
     59 H21         6.5746    1.4135   -4.2184 H         1 <0>         0.1333
@<TRIPOS>BOND
     1    1    6 ar
     2    1    2 ar
     3    1   39 1
     4    2    3 ar
     5    2   40 1
     6    3    4 ar
     7    3   41 1
     8    4    5 ar
     9    4    7 1
    10    5    6 ar
    11    5   42 1
    12    6   43 1
    13    7    8 1
    14    7   22 1
    15    7   30 1
    16    8    9 1
    17    8   44 1
    18    8   45 1
    19    9   14 ar
    20    9   10 ar
    21   10   11 ar
    22   10   46 1
    23   11   12 ar
    24   11   47 1
    25   12   13 ar
    26   12   15 1
    27   13   14 ar
    28   13   48 1
    29   14   49 1
    30   15   16 1
    31   15   17 1
    32   15   18 1
    33   18   19 2
    34   18   20 1
    35   18   21 1
    36   22   23 1
    37   22   50 1
    38   22   51 1
    39   23   28 ar
    40   23   24 ar
    41   24   25 ar
    42   24   52 1
    43   25   26 ar
    44   25   53 1
    45   26   27 ar
    46   26   29 1
    47   27   28 ar
    48   27   54 1
    49   28   55 1
    50   30   38 1
    51   30   31 1
    52   31   36 ar
    53   31   32 ar
    54   32   33 ar
    55   32   56 1
    56   33   34 ar
    57   33   57 1
    58   34   35 ar
    59   34   58 1
    60   35   36 ar
    61   35   59 1
    62   36   37 1
    63   37   38 2
@<TRIPOS>MOLECULE
CHEMBL9339__1
   59    63     0     0     0
SMALL
USER_CHARGES

@<TRIPOS>ATOM
      1 C1         -0.1849    0.6766   -0.6443 C.ar      1 <0>        -0.1126
      2 C2          0.3507   -0.2736   -1.4936 C.ar      1 <0>        -0.1160
      3 C3          1.6292   -0.7525   -1.2766 C.ar      1 <0>        -0.1066
      4 C4          2.3723   -0.2808   -0.2106 C.ar      1 <0>        -0.0877
      5 C5          1.8370    0.6701    0.6381 C.ar      1 <0>        -0.0913
      6 C6          0.5580    1.1479    0.4219 C.ar      1 <0>        -0.1106
      7 C7          3.7656   -0.8036    0.0265 C.3       1 <0>         0.2464
      8 C8          3.6952   -2.2766    0.4342 C.3       1 <0>        -0.0625
      9 C9          2.8128   -2.4204    1.6473 C.ar      1 <0>        -0.1155
     10 C10         3.3748   -2.4647    2.9095 C.ar      1 <0>        -0.0925
     11 C11         2.5654   -2.5966    4.0223 C.ar      1 <0>        -0.0802
     12 C12         1.1939   -2.6839    3.8729 C.ar      1 <0>        -0.0925
     13 C13         0.6318   -2.6387    2.6108 C.ar      1 <0>        -0.0924
     14 C14         1.4409   -2.5024    1.4983 C.ar      1 <0>        -0.1128
     15 C15         0.3115   -2.8287    5.0860 C.3       1 <0>        -0.2345
     16 F1          0.8598   -2.1052    6.1505 F         1 <0>        -0.2130
     17 F2         -0.9651   -2.3358    4.7955 F         1 <0>        -0.2146
     18 P1          0.1934   -4.5891    5.5448 P.3       1 <0>         2.1387
     19 O1         -0.5099   -5.3831    4.3918 O.2       1 <0>        -1.1360
     20 O2          1.6315   -5.1665    5.7747 O.3       1 <0>        -1.1332
     21 O3         -0.6429   -4.7305    6.8619 O.3       1 <0>        -1.1421
     22 C16         4.5865   -0.6684   -1.2576 C.3       1 <0>        -0.0889
     23 C17         5.9410   -1.2975   -1.0564 C.ar      1 <0>        -0.0663
     24 C18         6.9634   -0.5670   -0.4800 C.ar      1 <0>        -0.1011
     25 C19         8.2058   -1.1437   -0.2949 C.ar      1 <0>        -0.0859
     26 C20         8.4261   -2.4519   -0.6865 C.ar      1 <0>        -0.0875
     27 C21         7.4029   -3.1824   -1.2632 C.ar      1 <0>        -0.0867
     28 C22         6.1593   -2.6066   -1.4431 C.ar      1 <0>        -0.1031
     29 Br1        10.1259   -3.2412   -0.4341 Br        1 <0>        -0.0560
     30 N1          4.4017   -0.0307    1.0963 N.pl3     1 <0>        -0.3727
     31 C23         4.6771    1.3160    1.0861 C.ar      1 <0>         0.0860
     32 C24         4.4787    2.3361    0.1617 C.ar      1 <0>        -0.1177
     33 C25         4.8761    3.6094    0.4593 C.ar      1 <0>        -0.0783
     34 C26         5.4778    3.8952    1.6782 C.ar      1 <0>        -0.1419
     35 C27         5.6836    2.9127    2.6019 C.ar      1 <0>        -0.0358
     36 C28         5.2849    1.5988    2.3216 C.ar      1 <0>        -0.0166
     37 N2          5.3543    0.4461    3.0168 N.2       1 <0>        -0.2307
     38 N3          4.8441   -0.5182    2.3351 N.2       1 <0>         0.0370
     39 H1         -1.1820    1.0540   -0.8165 H         1 <0>         0.1211
     40 H2         -0.2298   -0.6421   -2.3264 H         1 <0>         0.1243
     41 H3          2.0474   -1.4953   -1.9397 H         1 <0>         0.1246
     42 H4          2.4174    1.0383    1.4711 H         1 <0>         0.1144
     43 H5          0.1397    1.8905    1.0852 H         1 <0>         0.1196
     44 H6          3.2817   -2.8615   -0.3873 H         1 <0>         0.0908
     45 H7          4.6968   -2.6370    0.6687 H         1 <0>         0.0884
     46 H8          4.4463   -2.3965    3.0262 H         1 <0>         0.1308
     47 H9          3.0045   -2.6319    5.0083 H         1 <0>         0.1257
     48 H10        -0.4397   -2.7072    2.4941 H         1 <0>         0.1202
     49 H11         1.0015   -2.4634    0.5125 H         1 <0>         0.1110
     50 H12         4.0694   -1.1726   -2.0740 H         1 <0>         0.1039
     51 H13         4.7085    0.3869   -1.5014 H         1 <0>         0.0877
     52 H14         6.7914    0.4545   -0.1746 H         1 <0>         0.1233
     53 H15         9.0046   -0.5728    0.1551 H         1 <0>         0.1295
     54 H16         7.5744   -4.2039   -1.5691 H         1 <0>         0.1347
     55 H17         5.3591   -3.1782   -1.8897 H         1 <0>         0.1356
     56 H18         4.0123    2.1225   -0.7887 H         1 <0>         0.1268
     57 H19         4.7213    4.4002   -0.2597 H         1 <0>         0.1306
     58 H20         5.7864    4.9067    1.8970 H         1 <0>         0.1303
     59 H21         6.1527    3.1466    3.5461 H         1 <0>         0.1339
@<TRIPOS>BOND
     1    1    6 ar
     2    1    2 ar
     3    1   39 1
     4    2    3 ar
     5    2   40 1
     6    3    4 ar
     7    3   41 1
     8    4    5 ar
     9    4    7 1
    10    5    6 ar
    11    5   42 1
    12    6   43 1
    13    7    8 1
    14    7   22 1
    15    7   30 1
    16    8    9 1
    17    8   44 1
    18    8   45 1
    19    9   14 ar
    20    9   10 ar
    21   10   11 ar
    22   10   46 1
    23   11   12 ar
    24   11   47 1
    25   12   13 ar
    26   12   15 1
    27   13   14 ar
    28   13   48 1
    29   14   49 1
    30   15   16 1
    31   15   17 1
    32   15   18 1
    33   18   19 2
    34   18   20 1
    35   18   21 1
    36   22   23 1
    37   22   50 1
    38   22   51 1
    39   23   28 ar
    40   23   24 ar
    41   24   25 ar
    42   24   52 1
    43   25   26 ar
    44   25   53 1
    45   26   27 ar
    46   26   29 1
    47   27   28 ar
    48   27   54 1
    49   28   55 1
    50   30   38 1
    51   30   31 1
    52   31   36 ar
    53   31   32 ar
    54   32   33 ar
    55   32   56 1
    56   33   34 ar
    57   33   57 1
    58   34   35 ar
    59   34   58 1
    60   35   36 ar
    61   35   59 1
    62   36   37 1
    63   37   38 2
@<TRIPOS>MOLECULE
CHEMBL1086020
   59    63     0     0     0
SMALL
USER_CHARGES

@<TRIPOS>ATOM
      1 C1          6.9199   -2.5679   -2.7156 C.ar      1 <0>        -0.1155
      2 C2          5.8310   -3.3158   -2.3083 C.ar      1 <0>        -0.1160
      3 C3          4.8598   -2.7436   -1.5081 C.ar      1 <0>        -0.1006
      4 C4          4.9778   -1.4237   -1.1148 C.ar      1 <0>        -0.0910
      5 C5          6.0672   -0.6760   -1.5213 C.ar      1 <0>        -0.1099
      6 C6          7.0376   -1.2478   -2.3226 C.ar      1 <0>        -0.1222
      7 C7          3.9186   -0.7996   -0.2432 C.3       1 <0>        -0.0043
      8 C8          4.2246   -1.0882    1.2039 C.2       1 <0>         0.0583
      9 C9          3.8459   -2.2033    1.8708 C.2       1 <0>        -0.1321
     10 C10         4.3629   -2.0481    3.2429 C.ar      1 <0>        -0.1112
     11 C11         4.3137   -2.8297    4.3940 C.ar      1 <0>        -0.0679
     12 C12         4.9169   -2.3805    5.5485 C.ar      1 <0>        -0.1348
     13 C13         5.5693   -1.1563    5.5650 C.ar      1 <0>        -0.0947
     14 C14         5.6242   -0.3737    4.4319 C.ar      1 <0>        -0.1080
     15 C15         5.0228   -0.8096    3.2573 C.ar      1 <0>         0.0526
     16 O1          4.9185   -0.2794    2.0216 O.3       1 <0>        -0.1873
     17 C16         3.0704   -3.3456    1.3327 C.ar      1 <0>        -0.0145
     18 C17         1.7497   -3.1609    0.9227 C.ar      1 <0>        -0.1083
     19 C18         1.0291   -4.2228    0.4226 C.ar      1 <0>        -0.1079
     20 C19         1.6196   -5.4827    0.3260 C.ar      1 <0>        -0.0347
     21 C20         2.9397   -5.6677    0.7363 C.ar      1 <0>        -0.1015
     22 C21         3.6627   -4.6047    1.2306 C.ar      1 <0>        -0.0964
     23 C22         0.8436   -6.6258   -0.2125 C.ar      1 <0>        -0.0398
     24 C23        -0.4747   -6.4407   -0.6278 C.ar      1 <0>        -0.1158
     25 C24        -1.1974   -7.5041   -1.1290 C.ar      1 <0>        -0.1234
     26 C25        -0.6161   -8.7595   -1.2209 C.ar      1 <0>         0.0754
     27 C26         0.7017   -8.9516   -0.8068 C.ar      1 <0>         0.1374
     28 C27         1.4325   -7.8848   -0.3093 C.ar      1 <0>        -0.1018
     29 N1          1.2872  -10.2190   -0.8996 N.am      1 <0>        -0.6698
     30 C28         2.6012  -10.3357   -1.1758 C.2       1 <0>         0.5504
     31 O2          3.2959   -9.3416   -1.2562 O.2       1 <0>        -0.5323
     32 C29         3.1973  -11.6723   -1.3809 C.2       1 <0>        -0.2204
     33 C30         4.5069  -11.7886   -1.6562 C.2       1 <0>        -0.0827
     34 C31         5.1014  -13.1216   -1.8607 C.2       1 <0>         0.5031
     35 O3          4.4024  -14.1218   -1.7798 O.co2     1 <0>        -0.6798
     36 O4          6.2937  -13.2274   -2.1113 O.co2     1 <0>        -0.6797
     37 O5         -1.3318   -9.8045   -1.7147 O.3       1 <0>        -0.4943
     38 H1          7.6809   -3.0163   -3.3370 H         1 <0>         0.1226
     39 H2          5.7388   -4.3470   -2.6156 H         1 <0>         0.1258
     40 H3          4.0087   -3.3277   -1.1905 H         1 <0>         0.1247
     41 H4          6.1591    0.3553   -1.2143 H         1 <0>         0.1210
     42 H5          7.8885   -0.6636   -2.6406 H         1 <0>         0.1217
     43 H6          3.9048    0.2785   -0.4037 H         1 <0>         0.0948
     44 H7          2.9449   -1.2175   -0.4991 H         1 <0>         0.1081
     45 H8          3.8054   -3.7825    4.3821 H         1 <0>         0.1278
     46 H9          4.8813   -2.9834    6.4439 H         1 <0>         0.1301
     47 H10         6.0386   -0.8129    6.4750 H         1 <0>         0.1346
     48 H11         6.1343    0.5779    4.4567 H         1 <0>         0.1309
     49 H12         1.2923   -2.1854    0.9977 H         1 <0>         0.1234
     50 H13         0.0066   -4.0799    0.1055 H         1 <0>         0.1282
     51 H14         3.3967   -6.6434    0.6617 H         1 <0>         0.1324
     52 H15         4.6865   -4.7469    1.5438 H         1 <0>         0.1237
     53 H16        -0.9306   -5.4642   -0.5569 H         1 <0>         0.1290
     54 H17        -2.2182   -7.3582   -1.4500 H         1 <0>         0.1328
     55 H18         2.4548   -8.0300    0.0075 H         1 <0>         0.1521
     56 H19         0.7474  -11.0137   -0.7652 H         1 <0>         0.4177
     57 H20         2.5800  -12.5557   -1.3095 H         1 <0>         0.1365
     58 H21         5.1242  -10.9053   -1.7276 H         1 <0>         0.1140
     59 H22        -1.2554   -9.9159   -2.6722 H         1 <0>         0.3896
@<TRIPOS>BOND
     1    1    6 ar
     2    1    2 ar
     3    1   38 1
     4    2    3 ar
     5    2   39 1
     6    3    4 ar
     7    3   40 1
     8    4    5 ar
     9    4    7 1
    10    5    6 ar
    11    5   41 1
    12    6   42 1
    13    7    8 1
    14    7   43 1
    15    7   44 1
    16    8   16 1
    17    8    9 2
    18    9   10 1
    19    9   17 1
    20   10   15 ar
    21   10   11 ar
    22   11   12 ar
    23   11   45 1
    24   12   13 ar
    25   12   46 1
    26   13   14 ar
    27   13   47 1
    28   14   15 ar
    29   14   48 1
    30   15   16 1
    31   17   22 ar
    32   17   18 ar
    33   18   19 ar
    34   18   49 1
    35   19   20 ar
    36   19   50 1
    37   20   21 ar
    38   20   23 1
    39   21   22 ar
    40   21   51 1
    41   22   52 1
    42   23   28 ar
    43   23   24 ar
    44   24   25 ar
    45   24   53 1
    46   25   26 ar
    47   25   54 1
    48   26   27 ar
    49   26   37 1
    50   27   28 ar
    51   27   29 1
    52   28   55 1
    53   29   30 am
    54   29   56 1
    55   30   31 2
    56   30   32 1
    57   32   33 2
    58   32   57 1
    59   33   34 1
    60   33   58 1
    61   34   35 2
    62   34   36 1
    63   37   59 1
@<TRIPOS>MOLECULE
CHEMBL550462
   45    47     0     0     0
SMALL
USER_CHARGES

@<TRIPOS>ATOM
      1 C1         -0.0224    1.3804    0.0070 C.2       1 <0>        -0.1536
      2 C2          1.1809    2.0607   -0.0018 C.2       1 <0>        -0.1671
      3 C3          2.3365    1.3523   -0.0127 C.2       1 <0>        -0.1290
      4 S1          1.7385   -0.3298   -0.0106 S.3       1 <0>         0.0276
      5 C4         -0.0111    0.0249    0.0045 C.2       1 <0>        -0.1806
      6 C5          3.7573    1.8544   -0.0240 C.3       1 <0>        -0.0391
      7 C6          4.2504    2.0223    1.4146 C.3       1 <0>        -0.1139
      8 C7          5.6930    2.5320    1.4030 C.3       1 <0>        -0.1056
      9 C8          6.1861    2.6999    2.8416 C.3       1 <0>        -0.1383
     10 C9          7.6069    3.2020    2.8303 C.2       1 <0>         0.5090
     11 O1          8.1698    3.4055    1.7754 O.2       1 <0>        -0.5197
     12 N1          8.2522    3.4248    3.9923 N.am      1 <0>        -0.6725
     13 C10         9.6010    3.7973    3.9834 C.ar      1 <0>         0.1257
     14 C11        10.0916    4.6153    2.9738 C.ar      1 <0>        -0.1180
     15 C12        11.4228    4.9766    2.9708 C.ar      1 <0>        -0.1034
     16 C13        12.2732    4.5287    3.9703 C.ar      1 <0>        -0.0693
     17 C14        11.7884    3.7192    4.9769 C.ar      1 <0>        -0.0978
     18 C15        10.4517    3.3557    4.9857 C.ar      1 <0>        -0.1369
     19 C16        12.6792    3.2239    6.0866 C.3       1 <0>         0.0925
     20 O2         14.0513    3.3854    5.7288 O.3       1 <0>        -0.3435
     21 C17        14.3673    4.7129    5.2945 C.3       1 <0>         0.0224
     22 H1         13.9748    5.4356    6.0098 H         1 <0>         0.0543
     23 C18        13.7226    4.9417    3.9263 C.3       1 <0>        -0.0929
     24 C19        15.8624    4.8680    5.1866 C.2       1 <0>         0.5061
     25 O3         16.5897    3.9062    5.3673 O.co2     1 <0>        -0.6729
     26 O4         16.3448    5.9552    4.9188 O.co2     1 <0>        -0.6912
     27 H2         -0.9574    1.9207    0.0201 H         1 <0>         0.1318
     28 H3          1.1999    3.1405   -0.0005 H         1 <0>         0.1321
     29 H4         -0.8444   -0.6621    0.0106 H         1 <0>         0.1836
     30 H5          4.3920    1.1371   -0.5443 H         1 <0>         0.0818
     31 H6          3.7990    2.8153   -0.5369 H         1 <0>         0.0889
     32 H7          3.6157    2.7396    1.9348 H         1 <0>         0.0677
     33 H8          4.2087    1.0613    1.9274 H         1 <0>         0.0670
     34 H9          6.3277    1.8147    0.8828 H         1 <0>         0.0739
     35 H10         5.7347    3.4929    0.8902 H         1 <0>         0.0737
     36 H11         5.5514    3.4172    3.3619 H         1 <0>         0.0956
     37 H12         6.1444    1.7389    3.3545 H         1 <0>         0.0965
     38 H13         7.7816    3.3270    4.8349 H         1 <0>         0.4083
     39 H14         9.4330    4.9671    2.1935 H         1 <0>         0.1354
     40 H15        11.8050    5.6117    2.1853 H         1 <0>         0.1262
     41 H16        10.0716    2.7223    5.7736 H         1 <0>         0.1233
     42 H17        12.4738    3.7909    6.9946 H         1 <0>         0.0568
     43 H18        12.4756    2.1688    6.2691 H         1 <0>         0.0968
     44 H19        14.2456    4.3493    3.1755 H         1 <0>         0.0821
     45 H20        13.7908    5.9978    3.6655 H         1 <0>         0.0861
@<TRIPOS>BOND
     1    1    5 2
     2    1    2 1
     3    1   27 1
     4    2    3 2
     5    2   28 1
     6    3    4 1
     7    3    6 1
     8    4    5 1
     9    5   29 1
    10    6    7 1
    11    6   30 1
    12    6   31 1
    13    7    8 1
    14    7   32 1
    15    7   33 1
    16    8    9 1
    17    8   34 1
    18    8   35 1
    19    9   10 1
    20    9   36 1
    21    9   37 1
    22   10   11 2
    23   10   12 am
    24   12   13 1
    25   12   38 1
    26   13   18 ar
    27   13   14 ar
    28   14   15 ar
    29   14   39 1
    30   15   16 ar
    31   15   40 1
    32   16   23 1
    33   16   17 ar
    34   17   18 ar
    35   17   19 1
    36   18   41 1
    37   19   20 1
    38   19   42 1
    39   19   43 1
    40   20   21 1
    41   21   22 1
    42   21   23 1
    43   21   24 1
    44   23   44 1
    45   23   45 1
    46   24   25 2
    47   24   26 1
@<TRIPOS>MOLECULE
CHEMBL559312
   45    47     0     0     0
SMALL
USER_CHARGES

@<TRIPOS>ATOM
      1 C1         -0.0224    1.3804    0.0070 C.2       1 <0>        -0.1537
      2 C2          1.1808    2.0608   -0.0018 C.2       1 <0>        -0.1670
      3 C3          2.3364    1.3524   -0.0127 C.2       1 <0>        -0.1294
      4 S1          1.7385   -0.3297   -0.0107 S.3       1 <0>         0.0280
      5 C4         -0.0111    0.0250    0.0045 C.2       1 <0>        -0.1805
      6 C5          3.7573    1.8545   -0.0241 C.3       1 <0>        -0.0388
      7 C6          4.2504    2.0223    1.4145 C.3       1 <0>        -0.1143
      8 C7          5.6929    2.5321    1.4030 C.3       1 <0>        -0.1050
      9 C8          6.1861    2.6999    2.8416 C.3       1 <0>        -0.1390
     10 C9          7.6069    3.2020    2.8303 C.2       1 <0>         0.5102
     11 O1          8.1697    3.4056    1.7754 O.2       1 <0>        -0.5213
     12 N1          8.2522    3.4248    3.9923 N.am      1 <0>        -0.6726
     13 C10         9.6010    3.7973    3.9834 C.ar      1 <0>         0.1343
     14 C11        10.0920    4.6152    2.9740 C.ar      1 <0>        -0.1266
     15 C12        11.4231    4.9763    2.9703 C.ar      1 <0>        -0.0977
     16 C13        12.2745    4.5288    3.9697 C.ar      1 <0>        -0.1254
     17 C14        11.7883    3.7195    4.9758 C.ar      1 <0>        -0.0420
     18 C15        10.4521    3.3559    4.9857 C.ar      1 <0>        -0.1428
     19 C16        12.6814    3.2252    6.0853 C.3       1 <0>        -0.0926
     20 C17        14.1475    3.3829    5.6786 C.3       1 <0>         0.0225
     21 H1         14.3894    2.6653    4.8947 H         1 <0>         0.0544
     22 O2         14.3423    4.7145    5.1889 O.3       1 <0>        -0.3443
     23 C18        13.7226    4.9428    3.9237 C.3       1 <0>         0.0923
     24 C19        15.0332    3.1442    6.8743 C.2       1 <0>         0.5062
     25 O3         15.0712    2.0421    7.3944 O.co2     1 <0>        -0.6915
     26 O4         15.7116    4.0531    7.3216 O.co2     1 <0>        -0.6725
     27 H2         -0.9574    1.9207    0.0202 H         1 <0>         0.1318
     28 H3          1.1999    3.1406   -0.0004 H         1 <0>         0.1320
     29 H4         -0.8444   -0.6621    0.0105 H         1 <0>         0.1837
     30 H5          4.3920    1.1372   -0.5444 H         1 <0>         0.0816
     31 H6          3.7990    2.8155   -0.5368 H         1 <0>         0.0886
     32 H7          3.6157    2.7396    1.9349 H         1 <0>         0.0679
     33 H8          4.2087    1.0614    1.9273 H         1 <0>         0.0673
     34 H9          6.3276    1.8148    0.8827 H         1 <0>         0.0737
     35 H10         5.7346    3.4931    0.8902 H         1 <0>         0.0734
     36 H11         5.5514    3.4172    3.3619 H         1 <0>         0.0960
     37 H12         6.1444    1.7389    3.3544 H         1 <0>         0.0970
     38 H13         7.7816    3.3270    4.8349 H         1 <0>         0.4095
     39 H14         9.4333    4.9673    2.1938 H         1 <0>         0.1352
     40 H15        11.8049    5.6111    2.1844 H         1 <0>         0.1246
     41 H16        10.0724    2.7228    5.7740 H         1 <0>         0.1248
     42 H17        12.4916    3.8047    6.9887 H         1 <0>         0.0829
     43 H18        12.4702    2.1736    6.2793 H         1 <0>         0.0859
     44 H19        14.2396    4.3634    3.1588 H         1 <0>         0.0559
     45 H20        13.7874    6.0023    3.6760 H         1 <0>         0.0972
@<TRIPOS>BOND
     1    1    5 2
     2    1    2 1
     3    1   27 1
     4    2    3 2
     5    2   28 1
     6    3    4 1
     7    3    6 1
     8    4    5 1
     9    5   29 1
    10    6    7 1
    11    6   30 1
    12    6   31 1
    13    7    8 1
    14    7   32 1
    15    7   33 1
    16    8    9 1
    17    8   34 1
    18    8   35 1
    19    9   10 1
    20    9   36 1
    21    9   37 1
    22   10   11 2
    23   10   12 am
    24   12   13 1
    25   12   38 1
    26   13   18 ar
    27   13   14 ar
    28   14   15 ar
    29   14   39 1
    30   15   16 ar
    31   15   40 1
    32   16   23 1
    33   16   17 ar
    34   17   18 ar
    35   17   19 1
    36   18   41 1
    37   19   20 1
    38   19   42 1
    39   19   43 1
    40   20   21 1
    41   20   22 1
    42   20   24 1
    43   22   23 1
    44   23   44 1
    45   23   45 1
    46   24   25 2
    47   24   26 1
@<TRIPOS>MOLECULE
CHEMBL24594
   66    71     0     0     0
SMALL
USER_CHARGES

@<TRIPOS>ATOM
      1 C1          7.5251   -2.6668   -3.9027 C.ar      1 <0>        -0.1170
      2 C2          6.4108   -3.4193   -3.5814 C.ar      1 <0>        -0.1180
      3 C3          5.3702   -2.8463   -2.8746 C.ar      1 <0>        -0.0995
      4 C4          5.4440   -1.5210   -2.4886 C.ar      1 <0>        -0.0902
      5 C5          6.5586   -0.7687   -2.8091 C.ar      1 <0>        -0.1078
      6 C6          7.5986   -1.3413   -3.5171 C.ar      1 <0>        -0.1222
      7 C7          4.3090   -0.8960   -1.7189 C.3       1 <0>        -0.0045
      8 C8          4.6057   -0.9638   -0.2430 C.2       1 <0>         0.0639
      9 C9          4.1826   -1.9425    0.5906 C.2       1 <0>        -0.1168
     10 C10         4.7092   -1.5919    1.9211 C.ar      1 <0>        -0.1584
     11 C11         4.6357   -2.1714    3.1858 C.ar      1 <0>        -0.0217
     12 C12         5.2777   -1.5323    4.2316 C.ar      1 <0>        -0.1913
     13 C13         5.9626   -0.3528    3.9867 C.ar      1 <0>         0.1401
     14 N1          6.0174    0.1749    2.7820 N.ar      1 <0>        -0.4737
     15 C14         5.4211   -0.3942    1.7438 C.ar      1 <0>         0.2573
     16 O1          5.3343   -0.0647    0.4394 O.3       1 <0>        -0.1775
     17 C15         3.3588   -3.1227    0.2379 C.ar      1 <0>        -0.0367
     18 C16         2.0401   -2.9520   -0.1843 C.ar      1 <0>        -0.0984
     19 C17         1.2746   -4.0491   -0.5120 C.ar      1 <0>        -0.1194
     20 C18         1.8176   -5.3306   -0.4218 C.ar      1 <0>        -0.0044
     21 C19         3.1358   -5.5015    0.0007 C.ar      1 <0>        -0.1202
     22 C20         3.9036   -4.4043    0.3226 C.ar      1 <0>        -0.0926
     23 C21         0.9933   -6.5116   -0.7747 C.ar      1 <0>        -0.1212
     24 C22        -0.3229   -6.3422   -1.2022 C.ar      1 <0>        -0.0595
     25 C23        -1.0870   -7.4425   -1.5296 C.ar      1 <0>        -0.2028
     26 C24        -0.5470   -8.7179   -1.4334 C.ar      1 <0>         0.1813
     27 C25         0.7632   -8.8900   -1.0075 C.ar      1 <0>        -0.1661
     28 C26         1.5346   -7.7933   -0.6850 C.ar      1 <0>        -0.0654
     29 O2         -1.3025   -9.8001   -1.7563 O.3       1 <0>        -0.2875
     30 C27        -2.6720   -9.5601   -2.0862 C.3       1 <0>         0.0225
     31 C28        -3.4928  -10.8203   -1.8049 C.3       1 <0>        -0.0641
     32 C29        -3.4834  -11.1062   -0.3253 C.ar      1 <0>        -0.0705
     33 C30        -2.4932  -11.9029    0.2184 C.ar      1 <0>        -0.1036
     34 C31        -2.4845  -12.1651    1.5756 C.ar      1 <0>        -0.1225
     35 C32        -3.4658  -11.6301    2.3892 C.ar      1 <0>        -0.1328
     36 C33        -4.4554  -10.8327    1.8456 C.ar      1 <0>        -0.1229
     37 C34        -4.4616  -10.5670    0.4890 C.ar      1 <0>        -0.1196
     38 C35        -2.7821   -9.2045   -3.5465 C.2       1 <0>         0.4813
     39 O3         -1.7951   -9.2493   -4.2609 O.co2     1 <0>        -0.6699
     40 O4         -3.8581   -8.8720   -4.0136 O.co2     1 <0>        -0.6888
     41 H1          8.3401   -3.1157   -4.4510 H         1 <0>         0.1215
     42 H2          6.3532   -4.4547   -3.8830 H         1 <0>         0.1247
     43 H3          4.4994   -3.4340   -2.6242 H         1 <0>         0.1261
     44 H4          6.6161    0.2668   -2.5079 H         1 <0>         0.1222
     45 H5          8.4693   -0.7536   -3.7679 H         1 <0>         0.1217
     46 H6          4.1964    0.1457   -2.0194 H         1 <0>         0.0987
     47 H7          3.3863   -1.4367   -1.9292 H         1 <0>         0.1135
     48 H8          4.0936   -3.0918    3.3452 H         1 <0>         0.1403
     49 H9          5.2451   -1.9479    5.2279 H         1 <0>         0.1450
     50 H10         6.4631    0.1455    4.8037 H         1 <0>         0.1706
     51 H11         1.6194   -1.9597   -0.2539 H         1 <0>         0.1218
     52 H12         0.2536   -3.9170   -0.8386 H         1 <0>         0.1282
     53 H13         3.5560   -6.4939    0.0709 H         1 <0>         0.1269
     54 H14         4.9258   -4.5363    0.6451 H         1 <0>         0.1191
     55 H15        -0.7438   -5.3504   -1.2766 H         1 <0>         0.1218
     56 H16        -2.1066   -7.3120   -1.8609 H         1 <0>         0.1298
     57 H17         1.1802   -9.8834   -0.9330 H         1 <0>         0.1274
     58 H18         2.5552   -7.9274   -0.3584 H         1 <0>         0.1249
     59 H19        -3.0524   -8.7365   -1.4820 H         1 <0>         0.0675
     60 H20        -4.5191  -10.6676   -2.1389 H         1 <0>         0.0965
     61 H21        -3.0581  -11.6642   -2.3408 H         1 <0>         0.0788
     62 H22        -1.7266  -12.3208   -0.4172 H         1 <0>         0.1227
     63 H23        -1.7113  -12.7881    2.0003 H         1 <0>         0.1171
     64 H24        -3.4594  -11.8355    3.4495 H         1 <0>         0.1153
     65 H25        -5.2223  -10.4150    2.4812 H         1 <0>         0.1171
     66 H26        -5.2327   -9.9409    0.0649 H         1 <0>         0.1213
@<TRIPOS>BOND
     1    1    6 ar
     2    1    2 ar
     3    1   41 1
     4    2    3 ar
     5    2   42 1
     6    3    4 ar
     7    3   43 1
     8    4    5 ar
     9    4    7 1
    10    5    6 ar
    11    5   44 1
    12    6   45 1
    13    7    8 1
    14    7   46 1
    15    7   47 1
    16    8   16 1
    17    8    9 2
    18    9   10 1
    19    9   17 1
    20   10   15 ar
    21   10   11 ar
    22   11   12 ar
    23   11   48 1
    24   12   13 ar
    25   12   49 1
    26   13   14 ar
    27   13   50 1
    28   14   15 ar
    29   15   16 1
    30   17   22 ar
    31   17   18 ar
    32   18   19 ar
    33   18   51 1
    34   19   20 ar
    35   19   52 1
    36   20   21 ar
    37   20   23 1
    38   21   22 ar
    39   21   53 1
    40   22   54 1
    41   23   28 ar
    42   23   24 ar
    43   24   25 ar
    44   24   55 1
    45   25   26 ar
    46   25   56 1
    47   26   27 ar
    48   26   29 1
    49   27   28 ar
    50   27   57 1
    51   28   58 1
    52   29   30 1
    53   30   31 1
    54   30   38 1
    55   30   59 1
    56   31   32 1
    57   31   60 1
    58   31   61 1
    59   32   37 ar
    60   32   33 ar
    61   33   34 ar
    62   33   62 1
    63   34   35 ar
    64   34   63 1
    65   35   36 ar
    66   35   64 1
    67   36   37 ar
    68   36   65 1
    69   37   66 1
    70   38   39 2
    71   38   40 1
@<TRIPOS>MOLECULE
CHEMBL24594__1
   66    71     0     0     0
SMALL
USER_CHARGES

@<TRIPOS>ATOM
      1 C1          6.8731   -1.6567   -3.1279 C.ar      1 <0>        -0.1174
      2 C2          5.8842   -2.5801   -2.8447 C.ar      1 <0>        -0.1187
      3 C3          4.8706   -2.2584   -1.9614 C.ar      1 <0>        -0.1004
      4 C4          4.8463   -1.0135   -1.3610 C.ar      1 <0>        -0.0896
      5 C5          5.8357   -0.0904   -1.6436 C.ar      1 <0>        -0.1073
      6 C6          6.8485   -0.4116   -2.5279 C.ar      1 <0>        -0.1219
      7 C7          3.7408   -0.6624   -0.3989 C.3       1 <0>        -0.0040
      8 C8          4.1755   -0.9890    1.0066 C.2       1 <0>         0.0623
      9 C9          3.8907   -2.1391    1.6607 C.2       1 <0>        -0.1159
     10 C10         4.5154   -2.0107    2.9887 C.ar      1 <0>        -0.1588
     11 C11         4.5937   -2.8259    4.1156 C.ar      1 <0>        -0.0212
     12 C12         5.2894   -2.3517    5.2135 C.ar      1 <0>        -0.1908
     13 C13         5.8764   -1.0979    5.1538 C.ar      1 <0>         0.1406
     14 N1          5.7881   -0.3462    4.0768 N.ar      1 <0>        -0.4740
     15 C14         5.1343   -0.7500    2.9966 C.ar      1 <0>         0.2572
     16 O1          4.9082   -0.1840    1.7940 O.3       1 <0>        -0.1777
     17 C15         3.1107   -3.2897    1.1473 C.ar      1 <0>        -0.0376
     18 C16         1.7427   -3.1546    0.9091 C.ar      1 <0>        -0.0977
     19 C17         1.0180   -4.2242    0.4320 C.ar      1 <0>        -0.1195
     20 C18         1.6515   -5.4423    0.1869 C.ar      1 <0>        -0.0040
     21 C19         3.0191   -5.5777    0.4253 C.ar      1 <0>        -0.1204
     22 C20         3.7454   -4.5066    0.8965 C.ar      1 <0>        -0.0927
     23 C21         0.8711   -6.5937   -0.3268 C.ar      1 <0>        -0.1214
     24 C22        -0.4950   -6.4586   -0.5707 C.ar      1 <0>        -0.0596
     25 C23        -1.2181   -7.5312   -1.0483 C.ar      1 <0>        -0.2025
     26 C24        -0.5872   -8.7449   -1.2860 C.ar      1 <0>         0.1821
     27 C25         0.7729   -8.8829   -1.0438 C.ar      1 <0>        -0.1662
     28 C26         1.5028   -7.8121   -0.5724 C.ar      1 <0>        -0.0653
     29 O2         -1.3025   -9.8001   -1.7563 O.3       1 <0>        -0.2873
     30 C27        -2.6720   -9.5601   -2.0862 C.3       1 <0>         0.0221
     31 C28        -3.1157  -10.5449   -3.1698 C.3       1 <0>        -0.0642
     32 C29        -2.3472  -10.2763   -4.4379 C.ar      1 <0>        -0.0705
     33 C30        -2.8399   -9.3804   -5.3681 C.ar      1 <0>        -0.1197
     34 C31        -2.1349   -9.1339   -6.5314 C.ar      1 <0>        -0.1227
     35 C32        -0.9369   -9.7832   -6.7642 C.ar      1 <0>        -0.1328
     36 C33        -0.4437  -10.6784   -5.8336 C.ar      1 <0>        -0.1225
     37 C34        -1.1466  -10.9216   -4.6683 C.ar      1 <0>        -0.1039
     38 C35        -3.5249   -9.7470   -0.8579 C.2       1 <0>         0.4815
     39 O3         -3.0078  -10.0570    0.2019 O.co2     1 <0>        -0.6702
     40 O4         -4.7319   -9.5882   -0.9238 O.co2     1 <0>        -0.6885
     41 H1          7.6675   -1.9096   -3.8145 H         1 <0>         0.1213
     42 H2          5.9032   -3.5527   -3.3137 H         1 <0>         0.1240
     43 H3          4.0976   -2.9796   -1.7407 H         1 <0>         0.1260
     44 H4          5.8165    0.8824   -1.1748 H         1 <0>         0.1226
     45 H5          7.6213    0.3098   -2.7489 H         1 <0>         0.1220
     46 H6          3.5194    0.4023   -0.4727 H         1 <0>         0.0984
     47 H7          2.8481   -1.2371   -0.6458 H         1 <0>         0.1133
     48 H8          4.1251   -3.7988    4.1319 H         1 <0>         0.1408
     49 H9          5.3738   -2.9520    6.1074 H         1 <0>         0.1455
     50 H10         6.4190   -0.7284    6.0114 H         1 <0>         0.1708
     51 H11         1.2520   -2.2115    1.0993 H         1 <0>         0.1218
     52 H12        -0.0411   -4.1198    0.2480 H         1 <0>         0.1281
     53 H13         3.5094   -6.5211    0.2357 H         1 <0>         0.1270
     54 H14         4.8053   -4.6100    1.0765 H         1 <0>         0.1192
     55 H15        -0.9864   -5.5149   -0.3853 H         1 <0>         0.1217
     56 H16        -2.2763   -7.4272   -1.2374 H         1 <0>         0.1294
     57 H17         1.2606   -9.8285   -1.2290 H         1 <0>         0.1274
     58 H18         2.5618   -7.9186   -0.3888 H         1 <0>         0.1248
     59 H19        -2.7837   -8.5403   -2.4543 H         1 <0>         0.0683
     60 H20        -2.9213  -11.5642   -2.8361 H         1 <0>         0.0781
     61 H21        -4.1822  -10.4216   -3.3582 H         1 <0>         0.0974
     62 H22        -3.7759   -8.8731   -5.1863 H         1 <0>         0.1212
     63 H23        -2.5203   -8.4345   -7.2585 H         1 <0>         0.1171
     64 H24        -0.3865   -9.5912   -7.6733 H         1 <0>         0.1152
     65 H25         0.4921  -11.1859   -6.0156 H         1 <0>         0.1170
     66 H26        -0.7594  -11.6183   -3.9395 H         1 <0>         0.1225
@<TRIPOS>BOND
     1    1    6 ar
     2    1    2 ar
     3    1   41 1
     4    2    3 ar
     5    2   42 1
     6    3    4 ar
     7    3   43 1
     8    4    5 ar
     9    4    7 1
    10    5    6 ar
    11    5   44 1
    12    6   45 1
    13    7    8 1
    14    7   46 1
    15    7   47 1
    16    8   16 1
    17    8    9 2
    18    9   10 1
    19    9   17 1
    20   10   15 ar
    21   10   11 ar
    22   11   12 ar
    23   11   48 1
    24   12   13 ar
    25   12   49 1
    26   13   14 ar
    27   13   50 1
    28   14   15 ar
    29   15   16 1
    30   17   22 ar
    31   17   18 ar
    32   18   19 ar
    33   18   51 1
    34   19   20 ar
    35   19   52 1
    36   20   21 ar
    37   20   23 1
    38   21   22 ar
    39   21   53 1
    40   22   54 1
    41   23   28 ar
    42   23   24 ar
    43   24   25 ar
    44   24   55 1
    45   25   26 ar
    46   25   56 1
    47   26   27 ar
    48   26   29 1
    49   27   28 ar
    50   27   57 1
    51   28   58 1
    52   29   30 1
    53   30   31 1
    54   30   38 1
    55   30   59 1
    56   31   32 1
    57   31   60 1
    58   31   61 1
    59   32   37 ar
    60   32   33 ar
    61   33   34 ar
    62   33   62 1
    63   34   35 ar
    64   34   63 1
    65   35   36 ar
    66   35   64 1
    67   36   37 ar
    68   36   65 1
    69   37   66 1
    70   38   39 2
    71   38   40 1
@<TRIPOS>MOLECULE
CHEMBL139393
   27    28     0     0     0
SMALL
USER_CHARGES

@<TRIPOS>ATOM
      1 C1         -0.0186    1.5180    0.0104 C.3       1 <0>        -0.0714
      2 C2          1.4332    2.0084   -0.0008 C.3       1 <0>        -0.0032
      3 N1          2.1754    1.3697   -1.0956 N.4       1 <0>        -0.5032
      4 C3          2.4237   -0.0460   -0.7660 C.3       1 <0>         0.1260
      5 C4          1.1264   -0.6669   -0.3530 C.2       1 <0>        -0.4140
      6 C5          0.0021   -0.0041    0.0020 C.2       1 <0>        -0.0081
      7 C6         -1.1119   -0.8635    0.3524 C.2       1 <0>        -0.2796
      8 C7         -0.8955   -2.2364    0.2865 C.2       1 <0>         0.0994
      9 S1          0.7018   -2.3764   -0.2147 S.3       1 <0>         0.2914
     10 N2         -1.7892   -3.2517    0.5690 N.am      1 <0>        -0.5861
     11 C8         -1.4065   -4.5386    0.4508 C.2       1 <0>         0.4423
     12 O1         -0.2771   -4.8057    0.0962 O.2       1 <0>        -0.5185
     13 C9         -2.3735   -5.6371    0.7564 C.2       1 <0>         0.5048
     14 O2         -2.0269   -6.8024    0.6493 O.co2     1 <0>        -0.6375
     15 O3         -3.5093   -5.3685    1.1130 O.co2     1 <0>        -0.6463
     16 C10        -2.4035   -0.3127    0.7569 C.2       1 <0>         0.5392
     17 O4         -2.5636    0.9007    0.8058 O.co2     1 <0>        -0.6976
     18 O5         -3.3261   -1.0644    1.0471 O.co2     1 <0>        -0.6761
     19 H1         -0.5216    1.8752    0.9090 H         1 <0>         0.1361
     20 H2         -0.5386    1.8847   -0.8746 H         1 <0>         0.0963
     21 H3          1.4482    3.0897   -0.1370 H         1 <0>         0.1273
     22 H4          1.9059    1.7595    0.9493 H         1 <0>         0.1254
     23 H5          1.6350    1.4269   -1.9458 H         1 <0>         0.4279
     24 H6          2.8165   -0.5635   -1.6412 H         1 <0>         0.1282
     25 H7          3.1399   -0.1123    0.0529 H         1 <0>         0.1262
     26 H8         -2.6920   -3.0383    0.8524 H         1 <0>         0.4485
     27 H9          3.0565    1.8439   -1.2256 H         1 <0>         0.4223
@<TRIPOS>BOND
     1    1    6 1
     2    1    2 1
     3    1   19 1
     4    1   20 1
     5    2    3 1
     6    2   21 1
     7    2   22 1
     8    3    4 1
     9    3   23 1
    10    3   27 1
    11    4    5 1
    12    4   24 1
    13    4   25 1
    14    5    9 1
    15    5    6 2
    16    6    7 1
    17    7    8 2
    18    7   16 1
    19    8    9 1
    20    8   10 1
    21   10   11 am
    22   10   26 1
    23   11   12 2
    24   11   13 1
    25   13   14 2
    26   13   15 1
    27   16   17 2
    28   16   18 1
@<TRIPOS>MOLECULE
CHEMBL556076
   47    49     0     0     0
SMALL
USER_CHARGES

@<TRIPOS>ATOM
      1 C1         -0.0073    1.5495    0.0205 C.3       1 <0>        -0.1245
      2 C2          0.0044    0.0196    0.0126 C.3       1 <0>         0.0366
      3 S1          1.0324   -0.6202   -1.3710 S.3       1 <0>        -0.2770
      4 C3          2.6483   -0.9338   -0.5595 C.3       1 <0>        -0.0715
      5 C4          2.2956   -1.5779    0.8042 C.3       1 <0>        -0.0421
      6 S2          0.8845   -0.6346    1.4832 S.3       1 <0>        -0.2664
      7 C5          3.4926   -1.4841    1.7525 C.3       1 <0>        -0.0825
      8 C6          3.1759   -2.2319    3.0491 C.3       1 <0>        -0.1401
      9 C7          4.3549   -2.1395    3.9831 C.2       1 <0>         0.5140
     10 O1          5.3506   -1.5351    3.6450 O.2       1 <0>        -0.5210
     11 N1          4.3030   -2.7286    5.1942 N.am      1 <0>        -0.6706
     12 C8          5.4310   -2.7266    6.0222 C.ar      1 <0>         0.1339
     13 C9          6.2847   -1.6310    6.0352 C.ar      1 <0>        -0.1261
     14 C10         7.3959   -1.6371    6.8520 C.ar      1 <0>        -0.0977
     15 C11         7.6656   -2.7302    7.6622 C.ar      1 <0>        -0.1247
     16 C12         6.8170   -3.8181    7.6541 C.ar      1 <0>        -0.0420
     17 C13         5.6985   -3.8162    6.8376 C.ar      1 <0>        -0.1421
     18 C14         7.0715   -5.0177    8.5310 C.3       1 <0>        -0.0927
     19 C15         8.5207   -5.0032    9.0202 C.3       1 <0>         0.0225
     20 H1          9.1903   -5.2202    8.1880 H         1 <0>         0.0544
     21 O2          8.8102   -3.7023    9.5442 O.3       1 <0>        -0.3441
     22 C16         8.8938   -2.6970    8.5346 C.3       1 <0>         0.0922
     23 C17         8.7013   -6.0398   10.0990 C.2       1 <0>         0.5063
     24 O3          8.5750   -7.2233    9.8345 O.co2     1 <0>        -0.6915
     25 O4          8.9738   -5.6950   11.2363 O.co2     1 <0>        -0.6724
     26 C18        -1.4203   -0.5333   -0.0604 C.3       1 <0>        -0.1198
     27 H2          1.0175    1.9208    0.0099 H         1 <0>         0.0700
     28 H3         -0.5347    1.9134   -0.8613 H         1 <0>         0.0761
     29 H4         -0.5130    1.9044    0.9185 H         1 <0>         0.0748
     30 H5          3.2461   -1.6202   -1.1591 H         1 <0>         0.1269
     31 H6          3.1841    0.0033   -0.4083 H         1 <0>         0.1033
     32 H7          2.0130   -2.6209    0.6619 H         1 <0>         0.1105
     33 H8          4.3669   -1.9313    1.2794 H         1 <0>         0.0924
     34 H9          3.6969   -0.4373    1.9773 H         1 <0>         0.0877
     35 H10         2.3017   -1.7847    3.5222 H         1 <0>         0.1013
     36 H11         2.9717   -3.2787    2.8242 H         1 <0>         0.1002
     37 H12         3.4837   -3.1540    5.4919 H         1 <0>         0.4101
     38 H13         6.0791   -0.7769    5.4071 H         1 <0>         0.1353
     39 H14         8.0604   -0.7857    6.8607 H         1 <0>         0.1247
     40 H15         5.0345   -4.6680    6.8325 H         1 <0>         0.1250
     41 H16         6.3992   -4.9889    9.3885 H         1 <0>         0.0831
     42 H17         6.8907   -5.9286    7.9604 H         1 <0>         0.0859
     43 H18         9.7772   -2.8742    7.9211 H         1 <0>         0.0560
     44 H19         8.9752   -1.7177    9.0062 H         1 <0>         0.0974
     45 H20        -1.9049   -0.1705   -0.9669 H         1 <0>         0.0734
     46 H21        -1.3869   -1.6227   -0.0774 H         1 <0>         0.0758
     47 H22        -1.9842   -0.2007    0.8110 H         1 <0>         0.0792
@<TRIPOS>BOND
     1    1    2 1
     2    1   27 1
     3    1   28 1
     4    1   29 1
     5    2    6 1
     6    2    3 1
     7    2   26 1
     8    3    4 1
     9    4    5 1
    10    4   30 1
    11    4   31 1
    12    5    6 1
    13    5    7 1
    14    5   32 1
    15    7    8 1
    16    7   33 1
    17    7   34 1
    18    8    9 1
    19    8   35 1
    20    8   36 1
    21    9   10 2
    22    9   11 am
    23   11   12 1
    24   11   37 1
    25   12   17 ar
    26   12   13 ar
    27   13   14 ar
    28   13   38 1
    29   14   15 ar
    30   14   39 1
    31   15   22 1
    32   15   16 ar
    33   16   17 ar
    34   16   18 1
    35   17   40 1
    36   18   19 1
    37   18   41 1
    38   18   42 1
    39   19   20 1
    40   19   21 1
    41   19   23 1
    42   21   22 1
    43   22   43 1
    44   22   44 1
    45   23   24 2
    46   23   25 1
    47   26   45 1
    48   26   46 1
    49   26   47 1
@<TRIPOS>MOLECULE
CHEMBL556076__1
   47    49     0     0     0
SMALL
USER_CHARGES

@<TRIPOS>ATOM
      1 C1          0.0083    1.5441   -0.0024 C.3       1 <0>        -0.1242
      2 C2          0.0198    0.0142   -0.0077 C.3       1 <0>         0.0365
      3 S1          1.0509   -0.6266   -1.3831 S.3       1 <0>        -0.2769
      4 C3          2.3827   -1.5770   -0.5675 C.3       1 <0>        -0.0728
      5 C4          2.5887   -0.9460    0.8319 C.3       1 <0>        -0.0408
      6 S2          0.8959   -0.6392    1.4707 S.3       1 <0>        -0.2651
      7 C5          3.3345   -1.9178    1.7485 C.3       1 <0>        -0.0809
      8 C6          3.6372   -1.2311    3.0817 C.3       1 <0>        -0.1407
      9 C7          4.3718   -2.1883    3.9845 C.2       1 <0>         0.5136
     10 O1          4.6281   -3.3095    3.5994 O.2       1 <0>        -0.5207
     11 N1          4.7441   -1.7985    5.2198 N.am      1 <0>        -0.6704
     12 C8          5.3389   -2.7157    6.0933 C.ar      1 <0>         0.1337
     13 C9          6.1898   -3.6969    5.6009 C.ar      1 <0>        -0.1262
     14 C10         6.7706   -4.5990    6.4676 C.ar      1 <0>        -0.0978
     15 C11         6.5115   -4.5315    7.8286 C.ar      1 <0>        -0.1246
     16 C12         5.6698   -3.5552    8.3207 C.ar      1 <0>        -0.0417
     17 C13         5.0859   -2.6454    7.4552 C.ar      1 <0>        -0.1419
     18 C14         5.3759   -3.4435    9.7951 C.3       1 <0>        -0.0928
     19 C15         5.7642   -4.7442   10.5002 C.3       1 <0>         0.0224
     20 H1          5.0690   -5.5351   10.2187 H         1 <0>         0.0545
     21 O2          7.0901   -5.1023   10.0949 O.3       1 <0>        -0.3441
     22 C16         7.1626   -5.5406    8.7386 C.3       1 <0>         0.0922
     23 C17         5.7238   -4.5423   11.9931 C.2       1 <0>         0.5063
     24 O3          4.6644   -4.3045   12.5477 O.co2     1 <0>        -0.6913
     25 O4          6.7506   -4.6168   12.6463 O.co2     1 <0>        -0.6725
     26 C18        -1.4047   -0.5387   -0.0855 C.3       1 <0>        -0.1206
     27 H2          1.0332    1.9152   -0.0095 H         1 <0>         0.0699
     28 H3         -0.5156    1.9066   -0.8868 H         1 <0>         0.0731
     29 H4         -0.5009    1.9005    0.8930 H         1 <0>         0.0784
     30 H5          2.0870   -2.6212   -0.4658 H         1 <0>         0.1048
     31 H6          3.3021   -1.5042   -1.1484 H         1 <0>         0.1211
     32 H7          3.1371   -0.0078    0.7471 H         1 <0>         0.1078
     33 H8          2.7160   -2.7978    1.9252 H         1 <0>         0.0890
     34 H9          4.2687   -2.2195    1.2748 H         1 <0>         0.0942
     35 H10         4.2557   -0.3511    2.9050 H         1 <0>         0.0996
     36 H11         2.7030   -0.9293    3.5553 H         1 <0>         0.1025
     37 H12         4.5997   -0.8822    5.5033 H         1 <0>         0.4100
     38 H13         6.3957   -3.7536    4.5422 H         1 <0>         0.1351
     39 H14         7.4309   -5.3628    6.0842 H         1 <0>         0.1248
     40 H15         4.4277   -1.8812    7.8415 H         1 <0>         0.1251
     41 H16         5.9484   -2.6176   10.2172 H         1 <0>         0.0831
     42 H17         4.3118   -3.2567    9.9393 H         1 <0>         0.0861
     43 H18         6.6508   -6.4980    8.6408 H         1 <0>         0.0561
     44 H19         8.2077   -5.6620    8.4538 H         1 <0>         0.0974
     45 H20        -1.8856   -0.1773   -0.9945 H         1 <0>         0.0777
     46 H21        -1.3714   -1.6281   -0.1005 H         1 <0>         0.0761
     47 H22        -1.9721   -0.2045    0.7832 H         1 <0>         0.0752
@<TRIPOS>BOND
     1    1    2 1
     2    1   27 1
     3    1   28 1
     4    1   29 1
     5    2    6 1
     6    2    3 1
     7    2   26 1
     8    3    4 1
     9    4    5 1
    10    4   30 1
    11    4   31 1
    12    5    6 1
    13    5    7 1
    14    5   32 1
    15    7    8 1
    16    7   33 1
    17    7   34 1
    18    8    9 1
    19    8   35 1
    20    8   36 1
    21    9   10 2
    22    9   11 am
    23   11   12 1
    24   11   37 1
    25   12   17 ar
    26   12   13 ar
    27   13   14 ar
    28   13   38 1
    29   14   15 ar
    30   14   39 1
    31   15   22 1
    32   15   16 ar
    33   16   17 ar
    34   16   18 1
    35   17   40 1
    36   18   19 1
    37   18   41 1
    38   18   42 1
    39   19   20 1
    40   19   21 1
    41   19   23 1
    42   21   22 1
    43   22   43 1
    44   22   44 1
    45   23   24 2
    46   23   25 1
    47   26   45 1
    48   26   46 1
    49   26   47 1
@<TRIPOS>MOLECULE
CHEMBL8660
   61    64     0     0     0
SMALL
USER_CHARGES

@<TRIPOS>ATOM
      1 C1          0.5042    1.4655   -0.5052 C.ar      1 <0>        -0.0971
      2 C2          0.3879    0.2621    0.1685 C.ar      1 <0>        -0.1318
      3 C3          1.4850   -0.5608    0.3117 C.ar      1 <0>        -0.0899
      4 C4          2.7174   -0.1768   -0.2264 C.ar      1 <0>        -0.1454
      5 C5          2.8266    1.0406   -0.9062 C.ar      1 <0>        -0.0631
      6 C6          1.7204    1.8526   -1.0405 C.ar      1 <0>        -0.1300
      7 C7          3.8935   -1.0489   -0.0777 C.2       1 <0>         0.4146
      8 O1          4.9306   -0.7693   -0.6402 O.2       1 <0>        -0.4275
      9 C8          3.8087   -2.2896    0.7736 C.3       1 <0>        -0.0456
     10 C9          2.7957   -3.2595    0.1620 C.3       1 <0>        -0.0725
     11 C10         3.1594   -3.5250   -1.2761 C.ar      1 <0>        -0.0945
     12 C11         2.7435   -2.6500   -2.2643 C.ar      1 <0>        -0.1350
     13 C12         3.0723   -2.8868   -3.5827 C.ar      1 <0>        -0.0834
     14 C13         3.8275   -4.0131   -3.9193 C.ar      1 <0>        -0.1364
     15 C14         4.2443   -4.8918   -2.9162 C.ar      1 <0>        -0.0854
     16 C15         3.9125   -4.6394   -1.6015 C.ar      1 <0>        -0.1235
     17 C16         4.1828   -4.2735   -5.3274 C.2       1 <0>         0.5224
     18 O2          3.8161   -3.5027   -6.2032 O.co2     1 <0>        -0.6933
     19 O3          4.8439   -5.2602   -5.6188 O.co2     1 <0>        -0.6932
     20 C17         3.3616   -1.9090    2.1865 C.3       1 <0>        -0.0669
     21 C18         4.4221   -1.0586    2.8369 C.ar      1 <0>        -0.1021
     22 C19         5.4445   -1.6549    3.5511 C.ar      1 <0>        -0.1048
     23 C20         6.4173   -0.8748    4.1478 C.ar      1 <0>        -0.0718
     24 C21         6.3679    0.5016    4.0299 C.ar      1 <0>        -0.0999
     25 C22         5.3461    1.0979    3.3150 C.ar      1 <0>        -0.0856
     26 C23         4.3757    0.3176    2.7147 C.ar      1 <0>        -0.1251
     27 C24         7.4279    1.3521    4.6812 C.3       1 <0>        -0.2342
     28 F1          8.6553    0.6822    4.6374 F         1 <0>        -0.2135
     29 F2          7.5355    2.5679    3.9976 F         1 <0>        -0.2143
     30 P1          6.9705    1.6695    6.4172 P.3       1 <0>         2.1439
     31 O4          5.6613    2.5288    6.4635 O.2       1 <0>        -1.1378
     32 O5          6.7269    0.3067    7.1506 O.3       1 <0>        -1.1354
     33 O6          8.1302    2.4457    7.1292 O.3       1 <0>        -1.1450
     34 C25         5.1620   -2.9497    0.8356 C.ar      1 <0>        -0.0607
     35 C26         6.3094   -2.1820    0.7643 C.ar      1 <0>        -0.0680
     36 C27         7.5507   -2.7875    0.8212 C.ar      1 <0>        -0.1251
     37 C28         7.6448   -4.1606    0.9499 C.ar      1 <0>        -0.1187
     38 C29         6.4974   -4.9282    1.0222 C.ar      1 <0>        -0.1333
     39 C30         5.2560   -4.3223    0.9696 C.ar      1 <0>        -0.1113
     40 H1         -0.3598    2.1038   -0.6176 H         1 <0>         0.1217
     41 H2         -0.5645   -0.0330    0.5835 H         1 <0>         0.1261
     42 H3          1.3929   -1.4992    0.8383 H         1 <0>         0.1439
     43 H4          3.7750    1.3441   -1.3242 H         1 <0>         0.1317
     44 H5          1.8030    2.7930   -1.5651 H         1 <0>         0.1247
     45 H6          2.8080   -4.1965    0.7188 H         1 <0>         0.0856
     46 H7          1.7987   -2.8215    0.2098 H         1 <0>         0.0839
     47 H8          2.1598   -1.7799   -2.0026 H         1 <0>         0.1111
     48 H9          2.7464   -2.2035   -4.3530 H         1 <0>         0.1196
     49 H10         4.8283   -5.7643   -3.1692 H         1 <0>         0.1207
     50 H11         4.2377   -5.3154   -0.8245 H         1 <0>         0.1177
     51 H12         2.4283   -1.3485    2.1336 H         1 <0>         0.0849
     52 H13         3.2094   -2.8135    2.7754 H         1 <0>         0.0846
     53 H14         5.4830   -2.7303    3.6431 H         1 <0>         0.1154
     54 H15         7.2156   -1.3407    4.7063 H         1 <0>         0.1249
     55 H16         5.3073    2.1733    3.2232 H         1 <0>         0.1218
     56 H17         3.5794    0.7833    2.1531 H         1 <0>         0.1117
     57 H18         6.2359   -1.1092    0.6637 H         1 <0>         0.1316
     58 H19         8.4472   -2.1878    0.7647 H         1 <0>         0.1132
     59 H20         8.6146   -4.6337    0.9937 H         1 <0>         0.1119
     60 H21         6.5708   -6.0010    1.1224 H         1 <0>         0.1138
     61 H22         4.3596   -4.9216    1.0298 H         1 <0>         0.1199
@<TRIPOS>BOND
     1    1    6 ar
     2    1    2 ar
     3    1   40 1
     4    2    3 ar
     5    2   41 1
     6    3    4 ar
     7    3   42 1
     8    4    5 ar
     9    4    7 1
    10    5    6 ar
    11    5   43 1
    12    6   44 1
    13    7    8 2
    14    7    9 1
    15    9   10 1
    16    9   20 1
    17    9   34 1
    18   10   11 1
    19   10   45 1
    20   10   46 1
    21   11   16 ar
    22   11   12 ar
    23   12   13 ar
    24   12   47 1
    25   13   14 ar
    26   13   48 1
    27   14   15 ar
    28   14   17 1
    29   15   16 ar
    30   15   49 1
    31   16   50 1
    32   17   18 2
    33   17   19 1
    34   20   21 1
    35   20   51 1
    36   20   52 1
    37   21   26 ar
    38   21   22 ar
    39   22   23 ar
    40   22   53 1
    41   23   24 ar
    42   23   54 1
    43   24   25 ar
    44   24   27 1
    45   25   26 ar
    46   25   55 1
    47   26   56 1
    48   27   28 1
    49   27   29 1
    50   27   30 1
    51   30   31 2
    52   30   32 1
    53   30   33 1
    54   34   39 ar
    55   34   35 ar
    56   35   36 ar
    57   35   57 1
    58   36   37 ar
    59   36   58 1
    60   37   38 ar
    61   37   59 1
    62   38   39 ar
    63   38   60 1
    64   39   61 1
@<TRIPOS>MOLECULE
CHEMBL8660__1
   61    64     0     0     0
SMALL
USER_CHARGES

@<TRIPOS>ATOM
      1 C1         -0.9123    0.9578   -1.5243 C.ar      1 <0>        -0.0970
      2 C2         -0.8437   -0.2539   -0.8589 C.ar      1 <0>        -0.1313
      3 C3          0.3806   -0.8285   -0.5901 C.ar      1 <0>        -0.0914
      4 C4          1.5548   -0.1839   -0.9921 C.ar      1 <0>        -0.1434
      5 C5          1.4770    1.0400   -1.6643 C.ar      1 <0>        -0.0625
      6 C6          0.2451    1.6020   -1.9253 C.ar      1 <0>        -0.1293
      7 C7          2.8655   -0.7900   -0.7087 C.2       1 <0>         0.4159
      8 O1          3.8736   -0.2968   -1.1678 O.2       1 <0>        -0.4285
      9 C8          2.9549   -2.0238    0.1521 C.3       1 <0>        -0.0459
     10 C9          2.2902   -1.7522    1.5031 C.3       1 <0>        -0.0679
     11 C10         2.9452   -0.5618    2.1550 C.ar      1 <0>        -0.0983
     12 C11         4.0920   -0.7347    2.9101 C.ar      1 <0>        -0.1151
     13 C12         4.6966    0.3501    3.5100 C.ar      1 <0>        -0.0863
     14 C13         4.1489    1.6259    3.3534 C.ar      1 <0>        -0.1355
     15 C14         2.9911    1.7928    2.5893 C.ar      1 <0>        -0.0867
     16 C15         2.4003    0.6996    1.9910 C.ar      1 <0>        -0.1319
     17 C16         4.7896    2.7912    3.9924 C.2       1 <0>         0.5220
     18 O2          5.8027    2.6417    4.6610 O.co2     1 <0>        -0.6929
     19 O3          4.3077    3.9065    3.8535 O.co2     1 <0>        -0.6931
     20 C17         2.2404   -3.1840   -0.5438 C.3       1 <0>        -0.0700
     21 C18         2.8103   -3.3680   -1.9267 C.ar      1 <0>        -0.1029
     22 C19         2.3471   -2.5936   -2.9739 C.ar      1 <0>        -0.1238
     23 C20         2.8699   -2.7625   -4.2423 C.ar      1 <0>        -0.0706
     24 C21         3.8563   -3.7053   -4.4635 C.ar      1 <0>        -0.1006
     25 C22         4.3202   -4.4791   -3.4161 C.ar      1 <0>        -0.0845
     26 C23         3.8004   -4.3073   -2.1468 C.ar      1 <0>        -0.1161
     27 C24         4.4256   -3.8901   -5.8466 C.3       1 <0>        -0.2338
     28 F1          4.4720   -2.6542   -6.5006 F         1 <0>        -0.2137
     29 F2          5.7182   -4.4167   -5.7523 F         1 <0>        -0.2141
     30 P1          3.3692   -5.0377   -6.7902 P.3       1 <0>         2.1444
     31 O4          3.4038   -6.4522   -6.1176 O.2       1 <0>        -1.1377
     32 O5          1.8972   -4.5015   -6.8034 O.3       1 <0>        -1.1356
     33 O6          3.8988   -5.1456   -8.2607 O.3       1 <0>        -1.1451
     34 C25         4.4027   -2.3822    0.3675 C.ar      1 <0>        -0.0642
     35 C26         4.7744   -3.7070    0.5005 C.ar      1 <0>        -0.1081
     36 C27         6.1024   -4.0358    0.6981 C.ar      1 <0>        -0.1334
     37 C28         7.0589   -3.0398    0.7623 C.ar      1 <0>        -0.1204
     38 C29         6.6873   -1.7151    0.6285 C.ar      1 <0>        -0.1295
     39 C30         5.3598   -1.3866    0.4266 C.ar      1 <0>        -0.0686
     40 H1         -1.8744    1.4008   -1.7356 H         1 <0>         0.1217
     41 H2         -1.7514   -0.7504   -0.5492 H         1 <0>         0.1261
     42 H3          0.4326   -1.7737   -0.0702 H         1 <0>         0.1435
     43 H4          2.3793    1.5440   -1.9776 H         1 <0>         0.1311
     44 H5          0.1834    2.5471   -2.4443 H         1 <0>         0.1247
     45 H6          1.2306   -1.5463    1.3519 H         1 <0>         0.0842
     46 H7          2.4025   -2.6257    2.1454 H         1 <0>         0.0824
     47 H8          4.5143   -1.7214    3.0302 H         1 <0>         0.1121
     48 H9          5.5912    0.2137    4.0996 H         1 <0>         0.1205
     49 H10         2.5623    2.7760    2.4640 H         1 <0>         0.1203
     50 H11         1.5078    0.8277    1.3964 H         1 <0>         0.1118
     51 H12         2.3841   -4.0976    0.0330 H         1 <0>         0.0862
     52 H13         1.1753   -2.9638   -0.6161 H         1 <0>         0.0856
     53 H14         1.5765   -1.8570   -2.8010 H         1 <0>         0.1142
     54 H15         2.5075   -2.1579   -5.0606 H         1 <0>         0.1246
     55 H16         5.0905   -5.2160   -3.5890 H         1 <0>         0.1224
     56 H17         4.1654   -4.9093   -1.3278 H         1 <0>         0.1204
     57 H18         4.0271   -4.4851    0.4503 H         1 <0>         0.1238
     58 H19         6.3927   -5.0708    0.8027 H         1 <0>         0.1153
     59 H20         8.0963   -3.2966    0.9175 H         1 <0>         0.1115
     60 H21         7.4345   -0.9369    0.6790 H         1 <0>         0.1140
     61 H22         5.0700   -0.3518    0.3182 H         1 <0>         0.1314
@<TRIPOS>BOND
     1    1    6 ar
     2    1    2 ar
     3    1   40 1
     4    2    3 ar
     5    2   41 1
     6    3    4 ar
     7    3   42 1
     8    4    5 ar
     9    4    7 1
    10    5    6 ar
    11    5   43 1
    12    6   44 1
    13    7    8 2
    14    7    9 1
    15    9   10 1
    16    9   20 1
    17    9   34 1
    18   10   11 1
    19   10   45 1
    20   10   46 1
    21   11   16 ar
    22   11   12 ar
    23   12   13 ar
    24   12   47 1
    25   13   14 ar
    26   13   48 1
    27   14   15 ar
    28   14   17 1
    29   15   16 ar
    30   15   49 1
    31   16   50 1
    32   17   18 2
    33   17   19 1
    34   20   21 1
    35   20   51 1
    36   20   52 1
    37   21   26 ar
    38   21   22 ar
    39   22   23 ar
    40   22   53 1
    41   23   24 ar
    42   23   54 1
    43   24   25 ar
    44   24   27 1
    45   25   26 ar
    46   25   55 1
    47   26   56 1
    48   27   28 1
    49   27   29 1
    50   27   30 1
    51   30   31 2
    52   30   32 1
    53   30   33 1
    54   34   39 ar
    55   34   35 ar
    56   35   36 ar
    57   35   57 1
    58   36   37 ar
    59   36   58 1
    60   37   38 ar
    61   37   59 1
    62   38   39 ar
    63   38   60 1
    64   39   61 1
@<TRIPOS>MOLECULE
CHEMBL549372
   47    49     0     0     0
SMALL
USER_CHARGES

@<TRIPOS>ATOM
      1 C1          0.0075    1.5147   -0.0105 C.3       1 <0>        -0.1199
      2 C2          0.0206   -0.0153   -0.0125 C.3       1 <0>         0.0367
      3 S1         -1.6761   -0.6848    0.2189 S.3       1 <0>        -0.2769
      4 C3         -1.3956   -2.1129    1.3368 C.3       1 <0>        -0.0718
      5 C4         -0.3685   -1.6106    2.3816 C.3       1 <0>        -0.0416
      6 S2          0.8968   -0.6631    1.4633 S.3       1 <0>        -0.2668
      7 C5          0.2812   -2.8005    3.0908 C.3       1 <0>        -0.0831
      8 C6          1.1995   -2.2916    4.2038 C.3       1 <0>        -0.1395
      9 C7          1.8394   -3.4636    4.9023 C.2       1 <0>         0.5129
     10 O1          1.5859   -4.5946    4.5452 O.2       1 <0>        -0.5194
     11 N1          2.6933   -3.2549    5.9239 N.am      1 <0>        -0.6705
     12 C8          3.2120   -4.3424    6.6355 C.ar      1 <0>         0.1252
     13 C9          3.4987   -5.5323    5.9789 C.ar      1 <0>        -0.1175
     14 C10         4.0080   -6.6005    6.6875 C.ar      1 <0>        -0.1034
     15 C11         4.2363   -6.4926    8.0509 C.ar      1 <0>        -0.0686
     16 C12         3.9565   -5.3108    8.7057 C.ar      1 <0>        -0.0978
     17 C13         3.4472   -4.2344    7.9980 C.ar      1 <0>        -0.1361
     18 C14         4.2037   -5.1521   10.1835 C.3       1 <0>         0.0925
     19 O2          4.3746   -6.4295   10.7965 O.3       1 <0>        -0.3434
     20 C15         5.3533   -7.2427   10.1396 C.3       1 <0>         0.0224
     21 H1          6.2644   -6.6651    9.9835 H         1 <0>         0.0544
     22 C16         4.7879   -7.6859    8.7891 C.3       1 <0>        -0.0931
     23 C17         5.6587   -8.4511   10.9866 C.2       1 <0>         0.5060
     24 O3          5.0279   -8.6533   12.0102 O.co2     1 <0>        -0.6728
     25 O4          6.5366   -9.2266   10.6483 O.co2     1 <0>        -0.6910
     26 C18         0.6515   -0.5506   -1.2994 C.3       1 <0>        -0.1247
     27 H2          1.0320    1.8868   -0.0194 H         1 <0>         0.0792
     28 H3         -0.5175    1.8747   -0.8952 H         1 <0>         0.0734
     29 H4         -0.5012    1.8725    0.8847 H         1 <0>         0.0756
     30 H5         -2.3262   -2.3980    1.8276 H         1 <0>         0.1270
     31 H6         -0.9871   -2.9557    0.7792 H         1 <0>         0.1035
     32 H7         -0.8616   -0.9662    3.1094 H         1 <0>         0.1102
     33 H8         -0.4940   -3.4346    3.5210 H         1 <0>         0.0926
     34 H9          0.8651   -3.3767    2.3731 H         1 <0>         0.0880
     35 H10         1.9748   -1.6575    3.7736 H         1 <0>         0.1009
     36 H11         0.6156   -1.7154    4.9215 H         1 <0>         0.0996
     37 H12         2.9484   -2.3509    6.1659 H         1 <0>         0.4090
     38 H13         3.3230   -5.6210    4.9169 H         1 <0>         0.1355
     39 H14         4.2299   -7.5263    6.1776 H         1 <0>         0.1263
     40 H15         3.2283   -3.3090    8.5100 H         1 <0>         0.1235
     41 H16         5.1025   -4.5549   10.3370 H         1 <0>         0.0569
     42 H17         3.3537   -4.6440   10.6391 H         1 <0>         0.0968
     43 H18         3.9913   -8.4123    8.9504 H         1 <0>         0.0822
     44 H19         5.5803   -8.1439    8.1971 H         1 <0>         0.0862
     45 H20         1.6811   -0.2003   -1.3723 H         1 <0>         0.0747
     46 H21         0.6388   -1.6404   -1.2843 H         1 <0>         0.0703
     47 H22         0.0842   -0.1925   -2.1585 H         1 <0>         0.0764
@<TRIPOS>BOND
     1    1    2 1
     2    1   27 1
     3    1   28 1
     4    1   29 1
     5    2    6 1
     6    2    3 1
     7    2   26 1
     8    3    4 1
     9    4    5 1
    10    4   30 1
    11    4   31 1
    12    5    6 1
    13    5    7 1
    14    5   32 1
    15    7    8 1
    16    7   33 1
    17    7   34 1
    18    8    9 1
    19    8   35 1
    20    8   36 1
    21    9   10 2
    22    9   11 am
    23   11   12 1
    24   11   37 1
    25   12   17 ar
    26   12   13 ar
    27   13   14 ar
    28   13   38 1
    29   14   15 ar
    30   14   39 1
    31   15   22 1
    32   15   16 ar
    33   16   17 ar
    34   16   18 1
    35   17   40 1
    36   18   19 1
    37   18   41 1
    38   18   42 1
    39   19   20 1
    40   20   21 1
    41   20   22 1
    42   20   23 1
    43   22   43 1
    44   22   44 1
    45   23   24 2
    46   23   25 1
    47   26   45 1
    48   26   46 1
    49   26   47 1
@<TRIPOS>MOLECULE
CHEMBL549372__1
   47    49     0     0     0
SMALL
USER_CHARGES

@<TRIPOS>ATOM
      1 C1          0.0083    1.5442   -0.0024 C.3       1 <0>        -0.1241
      2 C2          0.0197    0.0143   -0.0077 C.3       1 <0>         0.0365
      3 S1          1.0508   -0.6266   -1.3830 S.3       1 <0>        -0.2764
      4 C3          2.3825   -1.5770   -0.5674 C.3       1 <0>        -0.0730
      5 C4          2.5886   -0.9460    0.8319 C.3       1 <0>        -0.0403
      6 S2          0.8959   -0.6391    1.4708 S.3       1 <0>        -0.2661
      7 C5          3.3344   -1.9179    1.7485 C.3       1 <0>        -0.0814
      8 C6          3.6372   -1.2311    3.0817 C.3       1 <0>        -0.1400
      9 C7          4.3718   -2.1883    3.9845 C.2       1 <0>         0.5124
     10 O1          4.6280   -3.3096    3.5995 O.2       1 <0>        -0.5191
     11 N1          4.7441   -1.7985    5.2198 N.am      1 <0>        -0.6703
     12 C8          5.3389   -2.7157    6.0933 C.ar      1 <0>         0.1250
     13 C9          6.1898   -3.6968    5.6005 C.ar      1 <0>        -0.1176
     14 C10         6.7708   -4.5984    6.4677 C.ar      1 <0>        -0.1034
     15 C11         6.5112   -4.5302    7.8280 C.ar      1 <0>        -0.0684
     16 C12         5.6697   -3.5545    8.3215 C.ar      1 <0>        -0.0975
     17 C13         5.0857   -2.6451    7.4550 C.ar      1 <0>        -0.1359
     18 C14         5.3743   -3.4411    9.7946 C.3       1 <0>         0.0924
     19 O2          5.7522   -4.6409   10.4687 O.3       1 <0>        -0.3433
     20 C15         7.0968   -5.0453   10.1869 C.3       1 <0>         0.0223
     21 H1          7.7689   -4.1968   10.3149 H         1 <0>         0.0543
     22 C16         7.1616   -5.5389    8.7405 C.3       1 <0>        -0.0931
     23 C17         7.4986   -6.1553   11.1237 C.2       1 <0>         0.5062
     24 O3          6.6813   -6.6276   11.8953 O.co2     1 <0>        -0.6726
     25 O4          8.6410   -6.5811   11.1098 O.co2     1 <0>        -0.6912
     26 C18        -1.4048   -0.5385   -0.0854 C.3       1 <0>        -0.1205
     27 H2          1.0332    1.9152   -0.0095 H         1 <0>         0.0698
     28 H3         -0.5155    1.9067   -0.8868 H         1 <0>         0.0731
     29 H4         -0.5008    1.9007    0.8931 H         1 <0>         0.0781
     30 H5          2.0869   -2.6212   -0.4657 H         1 <0>         0.1050
     31 H6          3.3020   -1.5043   -1.1483 H         1 <0>         0.1213
     32 H7          3.1371   -0.0078    0.7471 H         1 <0>         0.1077
     33 H8          2.7159   -2.7978    1.9253 H         1 <0>         0.0892
     34 H9          4.2686   -2.2196    1.2749 H         1 <0>         0.0945
     35 H10         4.2557   -0.3511    2.9050 H         1 <0>         0.0992
     36 H11         2.7030   -0.9293    3.5554 H         1 <0>         0.1020
     37 H12         4.5997   -0.8822    5.5033 H         1 <0>         0.4089
     38 H13         6.3954   -3.7536    4.5418 H         1 <0>         0.1353
     39 H14         7.4315   -5.3622    6.0848 H         1 <0>         0.1264
     40 H15         4.4271   -1.8810    7.8408 H         1 <0>         0.1236
     41 H16         5.9320   -2.6022   10.2110 H         1 <0>         0.0569
     42 H17         4.3075   -3.2681    9.9366 H         1 <0>         0.0969
     43 H18         6.6386   -6.4917    8.6589 H         1 <0>         0.0823
     44 H19         8.2035   -5.6722    8.4494 H         1 <0>         0.0862
     45 H20        -1.8857   -0.1771   -0.9943 H         1 <0>         0.0778
     46 H21        -1.3715   -1.6279   -0.1004 H         1 <0>         0.0762
     47 H22        -1.9721   -0.2043    0.7833 H         1 <0>         0.0750
@<TRIPOS>BOND
     1    1    2 1
     2    1   27 1
     3    1   28 1
     4    1   29 1
     5    2    6 1
     6    2    3 1
     7    2   26 1
     8    3    4 1
     9    4    5 1
    10    4   30 1
    11    4   31 1
    12    5    6 1
    13    5    7 1
    14    5   32 1
    15    7    8 1
    16    7   33 1
    17    7   34 1
    18    8    9 1
    19    8   35 1
    20    8   36 1
    21    9   10 2
    22    9   11 am
    23   11   12 1
    24   11   37 1
    25   12   17 ar
    26   12   13 ar
    27   13   14 ar
    28   13   38 1
    29   14   15 ar
    30   14   39 1
    31   15   22 1
    32   15   16 ar
    33   16   17 ar
    34   16   18 1
    35   17   40 1
    36   18   19 1
    37   18   41 1
    38   18   42 1
    39   19   20 1
    40   20   21 1
    41   20   22 1
    42   20   23 1
    43   22   43 1
    44   22   44 1
    45   23   24 2
    46   23   25 1
    47   26   45 1
    48   26   46 1
    49   26   47 1
@<TRIPOS>MOLECULE
CHEMBL24566
   65    69     0     0     0
SMALL
USER_CHARGES

@<TRIPOS>ATOM
      1 C1         -0.0184    1.5028    0.0103 C.3       1 <0>        -0.1047
      2 C2          0.0021   -0.0041    0.0020 C.2       1 <0>        -0.1088
      3 C3          0.0059   -0.6835   -1.1668 C.2       1 <0>        -0.1480
      4 S1          0.0322   -2.3814   -0.6177 S.3       1 <0>         0.0331
      5 C4          0.0365   -2.0827    1.1420 C.2       1 <0>        -0.1215
      6 C5          0.0231   -0.7165    1.1976 C.2       1 <0>        -0.0765
      7 C6          0.0254   -0.0103    2.5015 C.ar      1 <0>        -0.0169
      8 C7          1.1320   -0.1066    3.3448 C.ar      1 <0>        -0.1075
      9 C8          1.1341    0.5493    4.5561 C.ar      1 <0>        -0.1023
     10 C9          0.0296    1.3099    4.9391 C.ar      1 <0>        -0.0470
     11 C10        -1.0770    1.4063    4.0958 C.ar      1 <0>        -0.1014
     12 C11        -1.0768    0.7550    2.8820 C.ar      1 <0>        -0.1008
     13 C12         0.0316    2.0157    6.2432 C.ar      1 <0>        -0.0272
     14 C13         1.1393    1.9247    7.0850 C.ar      1 <0>        -0.0974
     15 C14         1.1383    2.5826    8.2970 C.ar      1 <0>        -0.0888
     16 C15         0.0359    3.3350    8.6792 C.ar      1 <0>         0.0662
     17 C16        -1.0686    3.4276    7.8431 C.ar      1 <0>        -0.1086
     18 C17        -1.0717    2.7764    6.6276 C.ar      1 <0>        -0.0932
     19 O1          0.0378    3.9817    9.8742 O.3       1 <0>        -0.6611
     20 S2          0.5931    5.3974    9.8110 S.o2      1 <0>         2.6775
     21 O2          0.7171    5.8453   11.1539 O.2       1 <0>        -0.9338
     22 O3          1.6955    5.3616    8.9150 O.2       1 <0>        -0.9549
     23 C18        -0.6377    6.4066    9.0552 C.ar      1 <0>        -0.6930
     24 C19        -0.6495    6.5629    7.6780 C.ar      1 <0>        -0.0463
     25 C20        -1.6061    7.3494    7.0757 C.ar      1 <0>        -0.0923
     26 C21        -2.5714    7.9940    7.8565 C.ar      1 <0>        -0.0969
     27 C22        -2.5557    7.8326    9.2501 C.ar      1 <0>         0.1186
     28 C23        -1.5872    7.0320    9.8379 C.ar      1 <0>        -0.0620
     29 O4         -3.4858    8.4520   10.0183 O.3       1 <0>        -0.4683
     30 C24        -3.5965    8.8365    7.2201 C.2       1 <0>         0.5143
     31 O5         -3.6063    8.9749    6.0046 O.co2     1 <0>        -0.6804
     32 O6         -4.4389    9.3985    7.9066 O.co2     1 <0>        -0.6599
     33 C25         0.0558   -3.0781    2.2734 C.3       1 <0>         0.0027
     34 C26        -1.3584   -3.4301    2.6569 C.ar      1 <0>        -0.0804
     35 C27        -2.0182   -2.6894    3.6196 C.ar      1 <0>        -0.1030
     36 C28        -3.3155   -3.0123    3.9714 C.ar      1 <0>        -0.1174
     37 C29        -3.9531   -4.0757    3.3602 C.ar      1 <0>        -0.1201
     38 C30        -3.2936   -4.8158    2.3968 C.ar      1 <0>        -0.1202
     39 C31        -1.9978   -4.4903    2.0419 C.ar      1 <0>        -0.1122
     40 C32        -0.0088   -0.1446   -2.5741 C.3       1 <0>        -0.0693
     41 H1          1.0042    1.8801    0.0026 H         1 <0>         0.0688
     42 H2         -0.5455    1.8639   -0.8728 H         1 <0>         0.0659
     43 H3         -0.5286    1.8543    0.9071 H         1 <0>         0.0719
     44 H4          1.9872   -0.6959    3.0484 H         1 <0>         0.1243
     45 H5          1.9909    0.4744    5.2093 H         1 <0>         0.1291
     46 H6         -1.9325    1.9950    4.3926 H         1 <0>         0.1308
     47 H7         -1.9318    0.8335    2.2268 H         1 <0>         0.1250
     48 H8          1.9970    1.3392    6.7884 H         1 <0>         0.1405
     49 H9          1.9959    2.5122    8.9497 H         1 <0>         0.1417
     50 H10        -1.9248    4.0134    8.1434 H         1 <0>         0.1451
     51 H11        -1.9295    2.8522    5.9758 H         1 <0>         0.1425
     52 H12         0.0953    6.0656    7.0744 H         1 <0>         0.1348
     53 H13        -1.6108    7.4686    6.0023 H         1 <0>         0.1414
     54 H14        -1.5736    6.9011   10.9099 H         1 <0>         0.1403
     55 H15        -4.2858    7.9291   10.1656 H         1 <0>         0.3866
     56 H16         0.5811   -3.9788    1.9558 H         1 <0>         0.0876
     57 H17         0.5674   -2.6427    3.1317 H         1 <0>         0.0972
     58 H18        -1.5201   -1.8586    4.0972 H         1 <0>         0.1222
     59 H19        -3.8307   -2.4340    4.7241 H         1 <0>         0.1223
     60 H20        -4.9663   -4.3284    3.6355 H         1 <0>         0.1206
     61 H21        -3.7916   -5.6468    1.9195 H         1 <0>         0.1208
     62 H22        -1.4838   -5.0662    1.2866 H         1 <0>         0.1191
     63 H23         1.0152   -0.0001   -2.9185 H         1 <0>         0.0777
     64 H24        -0.5158   -0.8531   -3.2291 H         1 <0>         0.0715
     65 H25        -0.5363    0.8090   -2.5925 H         1 <0>         0.0818
@<TRIPOS>BOND
     1    1    2 1
     2    1   41 1
     3    1   42 1
     4    1   43 1
     5    2    6 1
     6    2    3 2
     7    3    4 1
     8    3   40 1
     9    4    5 1
    10    5    6 2
    11    5   33 1
    12    6    7 1
    13    7   12 ar
    14    7    8 ar
    15    8    9 ar
    16    8   44 1
    17    9   10 ar
    18    9   45 1
    19   10   11 ar
    20   10   13 1
    21   11   12 ar
    22   11   46 1
    23   12   47 1
    24   13   18 ar
    25   13   14 ar
    26   14   15 ar
    27   14   48 1
    28   15   16 ar
    29   15   49 1
    30   16   17 ar
    31   16   19 1
    32   17   18 ar
    33   17   50 1
    34   18   51 1
    35   19   20 1
    36   20   21 2
    37   20   22 2
    38   20   23 1
    39   23   28 ar
    40   23   24 ar
    41   24   25 ar
    42   24   52 1
    43   25   26 ar
    44   25   53 1
    45   26   27 ar
    46   26   30 1
    47   27   28 ar
    48   27   29 1
    49   28   54 1
    50   29   55 1
    51   30   31 2
    52   30   32 1
    53   33   34 1
    54   33   56 1
    55   33   57 1
    56   34   39 ar
    57   34   35 ar
    58   35   36 ar
    59   35   58 1
    60   36   37 ar
    61   36   59 1
    62   37   38 ar
    63   37   60 1
    64   38   39 ar
    65   38   61 1
    66   39   62 1
    67   40   63 1
    68   40   64 1
    69   40   65 1
@<TRIPOS>MOLECULE
CHEMBL137989
   44    46     0     0     0
SMALL
USER_CHARGES

@<TRIPOS>ATOM
      1 C1         -0.0173    1.4248    0.0099 C.3       1 <0>         0.0241
      2 O1          0.0021   -0.0041    0.0020 O.3       1 <0>        -0.3110
      3 C2         -1.2003   -0.6375    0.0101 C.ar      1 <0>         0.1356
      4 C3         -2.3748    0.1012    0.0195 C.ar      1 <0>        -0.1835
      5 C4         -3.5956   -0.5449    0.0272 C.ar      1 <0>        -0.0740
      6 C5         -3.6478   -1.9268    0.0256 C.ar      1 <0>        -0.1336
      7 C6         -2.4790   -2.6650    0.0167 C.ar      1 <0>        -0.1111
      8 C7         -1.2554   -2.0235    0.0032 C.ar      1 <0>        -0.1301
      9 C8         -2.5396   -4.1708    0.0155 C.3       1 <0>         0.0454
     10 N1         -2.5689   -4.6586   -1.3699 N.4       1 <0>        -0.3820
     11 C9         -2.7525   -6.1158   -1.3714 C.3       1 <0>        -0.0029
     12 C10        -3.0974   -6.6035   -2.7826 C.3       1 <0>        -0.0683
     13 C11        -2.0482   -6.0513   -3.7373 C.2       1 <0>        -0.0091
     14 C12        -1.2578   -5.0215   -3.3572 C.2       1 <0>        -0.4042
     15 S1         -0.2111   -4.7223   -4.7489 S.3       1 <0>         0.2898
     16 C13        -0.7850   -5.9009   -5.7992 C.2       1 <0>         0.0975
     17 C14        -1.7918   -6.5366   -5.0793 C.2       1 <0>        -0.2777
     18 C15        -2.5560   -7.6437   -5.6498 C.2       1 <0>         0.5399
     19 O2         -3.4363   -8.1839   -4.9912 O.co2     1 <0>        -0.6975
     20 O3         -2.3163   -8.0317   -6.7867 O.co2     1 <0>        -0.6770
     21 N2         -0.3555   -6.1763   -7.0834 N.am      1 <0>        -0.5862
     22 C16         0.6426   -5.4539   -7.6296 C.2       1 <0>         0.4420
     23 O4          1.1641   -4.5617   -6.9936 O.2       1 <0>        -0.5188
     24 C17         1.1073   -5.7519   -9.0189 C.2       1 <0>         0.5047
     25 O5          2.0112   -5.0977   -9.5135 O.co2     1 <0>        -0.6383
     26 O6          0.5828   -6.6493   -9.6585 O.co2     1 <0>        -0.6468
     27 C18        -1.2986   -4.3184   -2.0370 C.3       1 <0>         0.1241
     28 H1          1.0053    1.8021    0.0021 H         1 <0>         0.1069
     29 H2         -0.5445    1.7859   -0.8732 H         1 <0>         0.0606
     30 H3         -0.5275    1.7763    0.9067 H         1 <0>         0.0580
     31 H4         -2.3345    1.1804    0.0211 H         1 <0>         0.1363
     32 H5         -4.5101    0.0296    0.0349 H         1 <0>         0.1352
     33 H6         -4.6033   -2.4302    0.0316 H         1 <0>         0.1331
     34 H7         -0.3426   -2.6006   -0.0083 H         1 <0>         0.1412
     35 H8         -1.6615   -4.5702    0.5228 H         1 <0>         0.1353
     36 H9         -3.4399   -4.4986    0.5352 H         1 <0>         0.1370
     37 H10        -1.8326   -6.5961   -1.0380 H         1 <0>         0.1255
     38 H11        -3.5620   -6.3786   -0.6904 H         1 <0>         0.1262
     39 H12        -3.0839   -7.6931   -2.8099 H         1 <0>         0.1375
     40 H13        -4.0842   -6.2389   -3.0680 H         1 <0>         0.0956
     41 H14        -0.7724   -6.8895   -7.5917 H         1 <0>         0.4481
     42 H15        -1.2424   -3.2411   -2.1926 H         1 <0>         0.1246
     43 H16        -0.4610   -4.6452   -1.4207 H         1 <0>         0.1240
     44 H17        -3.3342   -4.2236   -1.8630 H         1 <0>         0.4237
@<TRIPOS>BOND
     1    1    2 1
     2    1   28 1
     3    1   29 1
     4    1   30 1
     5    2    3 1
     6    3    8 ar
     7    3    4 ar
     8    4    5 ar
     9    4   31 1
    10    5    6 ar
    11    5   32 1
    12    6    7 ar
    13    6   33 1
    14    7    8 ar
    15    7    9 1
    16    8   34 1
    17    9   10 1
    18    9   35 1
    19    9   36 1
    20   10   27 1
    21   10   11 1
    22   10   44 1
    23   11   12 1
    24   11   37 1
    25   11   38 1
    26   12   13 1
    27   12   39 1
    28   12   40 1
    29   13   17 1
    30   13   14 2
    31   14   15 1
    32   14   27 1
    33   15   16 1
    34   16   17 2
    35   16   21 1
    36   17   18 1
    37   18   19 2
    38   18   20 1
    39   21   22 am
    40   21   41 1
    41   22   23 2
    42   22   24 1
    43   24   25 2
    44   24   26 1
    45   27   42 1
    46   27   43 1
@<TRIPOS>MOLECULE
CHEMBL137989__1
   43    45     0     0     0
SMALL
USER_CHARGES

@<TRIPOS>ATOM
      1 C1         -0.0173    1.4248    0.0099 C.3       1 <0>         0.0294
      2 O1          0.0021   -0.0041    0.0020 O.3       1 <0>        -0.3178
      3 C2          0.6058   -0.6071   -1.0557 C.ar      1 <0>         0.1236
      4 C3          1.1731    0.1608   -2.0626 C.ar      1 <0>        -0.2122
      5 C4          1.7865   -0.4545   -3.1363 C.ar      1 <0>        -0.0840
      6 C5          1.8356   -1.8347   -3.2084 C.ar      1 <0>        -0.1331
      7 C6          1.2707   -2.6020   -2.2067 C.ar      1 <0>        -0.0313
      8 C7          0.6609   -1.9913   -1.1277 C.ar      1 <0>        -0.1431
      9 C8          1.3255   -4.1057   -2.2887 C.3       1 <0>         0.0920
     10 N1          2.5475   -4.5877   -1.6311 N.3       1 <0>        -0.5259
     11 C9          2.7552   -6.0193   -1.8900 C.3       1 <0>         0.0581
     12 C10         4.1908   -6.4163   -1.5315 C.3       1 <0>        -0.0369
     13 C11         4.4788   -5.9231   -0.1206 C.2       1 <0>        -0.0202
     14 C12         3.6958   -4.9785    0.4478 C.2       1 <0>        -0.3061
     15 S1          4.3906   -4.7249    2.0526 S.3       1 <0>         0.2133
     16 C13         5.6667   -5.8154    1.9890 C.2       1 <0>         0.0686
     17 C14         5.5639   -6.3850    0.7240 C.2       1 <0>        -0.2706
     18 C15         6.5067   -7.4036    0.2667 C.2       1 <0>         0.5427
     19 O2          6.3904   -7.8872   -0.8527 O.co2     1 <0>        -0.6982
     20 O3          7.4132   -7.7737    1.0027 O.co2     1 <0>        -0.6934
     21 N2          6.6035   -6.0849    2.9685 N.am      1 <0>        -0.5885
     22 C16         6.5526   -5.4333    4.1471 C.2       1 <0>         0.4367
     23 O4          5.6841   -4.6100    4.3483 O.2       1 <0>        -0.5267
     24 C17         7.5661   -5.7248    5.2068 C.2       1 <0>         0.5061
     25 O5          7.5200   -5.1348    6.2741 O.co2     1 <0>        -0.6502
     26 O6          8.4396   -6.5528    5.0045 O.co2     1 <0>        -0.6558
     27 C18         2.5101   -4.3164   -0.1815 C.3       1 <0>         0.1637
     28 H1          1.0053    1.8021    0.0021 H         1 <0>         0.0550
     29 H2         -0.5445    1.7859   -0.8732 H         1 <0>         0.0512
     30 H3         -0.5275    1.7763    0.9067 H         1 <0>         0.0970
     31 H4          1.1347    1.2387   -2.0069 H         1 <0>         0.1229
     32 H5          2.2279    0.1427   -3.9204 H         1 <0>         0.1216
     33 H6          2.3157   -2.3139   -4.0487 H         1 <0>         0.1249
     34 H7          0.2237   -2.5911   -0.3432 H         1 <0>         0.1286
     35 H8          0.4535   -4.5288   -1.7900 H         1 <0>         0.0422
     36 H9          1.3304   -4.4127   -3.3346 H         1 <0>         0.0851
     37 H10         2.0580   -6.6006   -1.2866 H         1 <0>         0.0327
     38 H11         2.5759   -6.2255   -2.9452 H         1 <0>         0.0702
     39 H12         4.2935   -7.5008   -1.5705 H         1 <0>         0.0951
     40 H13         4.8864   -5.9545   -2.2321 H         1 <0>         0.0748
     41 H14         7.2977   -6.7430    2.8077 H         1 <0>         0.4419
     42 H15         2.5535   -3.2413   -0.0072 H         1 <0>         0.0802
     43 H16         1.5927   -4.7221    0.2452 H         1 <0>         0.0367
@<TRIPOS>BOND
     1    1    2 1
     2    1   28 1
     3    1   29 1
     4    1   30 1
     5    2    3 1
     6    3    8 ar
     7    3    4 ar
     8    4    5 ar
     9    4   31 1
    10    5    6 ar
    11    5   32 1
    12    6    7 ar
    13    6   33 1
    14    7    8 ar
    15    7    9 1
    16    8   34 1
    17    9   10 1
    18    9   35 1
    19    9   36 1
    20   10   27 1
    21   10   11 1
    22   11   12 1
    23   11   37 1
    24   11   38 1
    25   12   13 1
    26   12   39 1
    27   12   40 1
    28   13   17 1
    29   13   14 2
    30   14   15 1
    31   14   27 1
    32   15   16 1
    33   16   17 2
    34   16   21 1
    35   17   18 1
    36   18   19 2
    37   18   20 1
    38   21   22 am
    39   21   41 1
    40   22   23 2
    41   22   24 1
    42   24   25 2
    43   24   26 1
    44   27   42 1
    45   27   43 1
@<TRIPOS>MOLECULE
CHEMBL556636
   53    55     0     0     0
SMALL
USER_CHARGES

@<TRIPOS>ATOM
      1 C1         -0.0093    1.5540    0.0225 C.3       1 <0>        -0.1241
      2 C2          0.0023    0.0240    0.0146 C.3       1 <0>         0.0348
      3 S1          1.0303   -0.6158   -1.3689 S.3       1 <0>        -0.2794
      4 C3          2.6461   -0.9295   -0.5575 C.3       1 <0>        -0.0727
      5 C4          2.2935   -1.5735    0.8063 C.3       1 <0>        -0.0410
      6 S2          0.8824   -0.6302    1.4853 S.3       1 <0>        -0.2629
      7 C5          3.4905   -1.4798    1.7545 C.3       1 <0>        -0.0988
      8 C6          3.1738   -2.2275    3.0512 C.3       1 <0>        -0.1198
      9 C7          4.3708   -2.1338    3.9995 C.3       1 <0>        -0.1034
     10 C8          4.0540   -2.8815    5.2962 C.3       1 <0>        -0.1382
     11 C9          5.2331   -2.7892    6.2302 C.2       1 <0>         0.5092
     12 O1          6.2288   -2.1848    5.8920 O.2       1 <0>        -0.5201
     13 N1          5.1811   -3.3782    7.4413 N.am      1 <0>        -0.6724
     14 C10         6.3092   -3.3762    8.2692 C.ar      1 <0>         0.1257
     15 C11         7.1626   -2.2804    8.2820 C.ar      1 <0>        -0.1180
     16 C12         8.2736   -2.2866    9.0995 C.ar      1 <0>        -0.1034
     17 C13         8.5424   -3.3799    9.9090 C.ar      1 <0>        -0.0693
     18 C14         7.6947   -4.4685    9.9018 C.ar      1 <0>        -0.0978
     19 C15         6.5762   -4.4659    9.0845 C.ar      1 <0>        -0.1369
     20 C16         7.9471   -5.6685   10.7772 C.3       1 <0>         0.0926
     21 O2          9.2906   -5.6559   11.2584 O.3       1 <0>        -0.3435
     22 C17         9.6567   -4.4155   11.8733 C.3       1 <0>         0.0224
     23 H1          8.8917   -4.1234   12.5928 H         1 <0>         0.0544
     24 C18         9.7707   -3.3489   10.7827 C.3       1 <0>        -0.0930
     25 C19        10.9806   -4.5701   12.5765 C.2       1 <0>         0.5062
     26 O3         11.6041   -5.6134   12.4797 O.co2     1 <0>        -0.6730
     27 O4         11.4281   -3.6520   13.2423 O.co2     1 <0>        -0.6912
     28 C20        -1.4224   -0.5288   -0.0583 C.3       1 <0>        -0.1196
     29 H2          1.0155    1.9251    0.0119 H         1 <0>         0.0695
     30 H3         -0.5366    1.9178   -0.8593 H         1 <0>         0.0758
     31 H4         -0.5149    1.9088    0.9205 H         1 <0>         0.0747
     32 H5          3.2439   -1.6160   -1.1570 H         1 <0>         0.1253
     33 H6          3.1821    0.0075   -0.4063 H         1 <0>         0.1017
     34 H7          2.0108   -2.6166    0.6641 H         1 <0>         0.1080
     35 H8          4.3647   -1.9271    1.2814 H         1 <0>         0.0839
     36 H9          3.6948   -0.4330    1.9794 H         1 <0>         0.0795
     37 H10         2.2996   -1.7802    3.5243 H         1 <0>         0.0702
     38 H11         2.9695   -3.2743    2.8264 H         1 <0>         0.0662
     39 H12         5.2450   -2.5811    3.5264 H         1 <0>         0.0724
     40 H13         4.5751   -1.0870    4.2243 H         1 <0>         0.0726
     41 H14         3.1798   -2.4342    5.7693 H         1 <0>         0.0956
     42 H15         3.8498   -3.9283    5.0713 H         1 <0>         0.0959
     43 H16         4.3618   -3.8036    7.7390 H         1 <0>         0.4084
     44 H17         6.9571   -1.4264    7.6537 H         1 <0>         0.1353
     45 H18         8.9381   -1.4353    9.1088 H         1 <0>         0.1262
     46 H19         5.9122   -5.3176    9.0787 H         1 <0>         0.1233
     47 H20         7.2604   -5.6488   11.6234 H         1 <0>         0.0568
     48 H21         7.7790   -6.5779   10.2002 H         1 <0>         0.0967
     49 H22        10.6534   -3.5456   10.1742 H         1 <0>         0.0821
     50 H23         9.8619   -2.3661   11.2451 H         1 <0>         0.0861
     51 H24        -1.9069   -0.1660   -0.9648 H         1 <0>         0.0731
     52 H25        -1.3890   -1.6182   -0.0753 H         1 <0>         0.0753
     53 H26        -1.9863   -0.1961    0.8131 H         1 <0>         0.0790
@<TRIPOS>BOND
     1    1    2 1
     2    1   29 1
     3    1   30 1
     4    1   31 1
     5    2    6 1
     6    2    3 1
     7    2   28 1
     8    3    4 1
     9    4    5 1
    10    4   32 1
    11    4   33 1
    12    5    6 1
    13    5    7 1
    14    5   34 1
    15    7    8 1
    16    7   35 1
    17    7   36 1
    18    8    9 1
    19    8   37 1
    20    8   38 1
    21    9   10 1
    22    9   39 1
    23    9   40 1
    24   10   11 1
    25   10   41 1
    26   10   42 1
    27   11   12 2
    28   11   13 am
    29   13   14 1
    30   13   43 1
    31   14   19 ar
    32   14   15 ar
    33   15   16 ar
    34   15   44 1
    35   16   17 ar
    36   16   45 1
    37   17   24 1
    38   17   18 ar
    39   18   19 ar
    40   18   20 1
    41   19   46 1
    42   20   21 1
    43   20   47 1
    44   20   48 1
    45   21   22 1
    46   22   23 1
    47   22   24 1
    48   22   25 1
    49   24   49 1
    50   24   50 1
    51   25   26 2
    52   25   27 1
    53   28   51 1
    54   28   52 1
    55   28   53 1
